<?xml version="1.0" encoding="UTF-8"?>

<!-- generated on 2025-10-17T21:42:25.104352+05:30 by Eclipse SUMO netconvert v1_24_0+1454-51d0da9119e
<netconvertConfiguration xmlns:xsi="http://www.w3.org/2001/XMLSchema-instance" xsi:noNamespaceSchemaLocation="http://sumo.dlr.de/xsd/netconvertConfiguration.xsd">

    <input>
        <osm-files value="electronic_city.osm"/>
    </input>

    <output>
        <output-file value="electronic_city.net.xml"/>
    </output>

    <projection>
        <proj.utm value="true"/>
    </projection>

    <processing>
        <geometry.remove value="true"/>
    </processing>

    <tls_building>
        <tls.discard-simple value="true"/>
        <tls.join value="true"/>
        <tls.guess-signals value="true"/>
        <tls.default-type value="actuated"/>
    </tls_building>

    <ramp_guessing>
        <ramps.guess value="true"/>
    </ramp_guessing>

    <edge_removal>
        <keep-edges.by-vclass value="passenger"/>
        <remove-edges.isolated value="true"/>
    </edge_removal>

    <junctions>
        <junctions.join value="true"/>
    </junctions>

    <report>
        <verbose value="true"/>
    </report>

</netconvertConfiguration>
-->

<net version="1.20" junctionCornerDetail="5" limitTurnSpeed="5.50" xmlns:xsi="http://www.w3.org/2001/XMLSchema-instance" xsi:noNamespaceSchemaLocation="http://sumo.dlr.de/xsd/net_file.xsd">

    <location netOffset="-788621.69,-1420553.81" convBoundary="0.00,0.00,1447.82,1439.25" origBoundary="77.657539,12.836212,77.672366,12.851053" projParameter="+proj=utm +zone=43 +ellps=WGS84 +datum=WGS84 +units=m +no_defs"/>

    <type id="highway.motorway_link" priority="9" numLanes="1" speed="22.22" allow="private emergency authority army vip passenger hov taxi bus coach delivery truck trailer motorcycle evehicle custom1 custom2" oneway="1"/>
    <type id="highway.residential" priority="3" numLanes="1" speed="13.89" disallow="tram rail_urban rail rail_electric rail_fast ship container cable_car subway aircraft wheelchair scooter drone" oneway="0"/>
    <type id="highway.secondary" priority="11" numLanes="1" speed="27.78" disallow="tram rail_urban rail rail_electric rail_fast ship container cable_car subway aircraft wheelchair scooter drone" oneway="0"/>
    <type id="highway.tertiary" priority="10" numLanes="1" speed="22.22" disallow="tram rail_urban rail rail_electric rail_fast ship container cable_car subway aircraft wheelchair scooter drone" oneway="0"/>
    <type id="highway.unclassified" priority="4" numLanes="1" speed="13.89" disallow="tram rail_urban rail rail_electric rail_fast ship container cable_car subway aircraft wheelchair scooter drone" oneway="0"/>

    <edge id=":10980284848_0" function="internal">
        <lane id=":10980284848_0_0" index="0" disallow="tram rail_urban rail rail_electric rail_fast ship container cable_car subway aircraft wheelchair scooter drone" speed="11.11" length="9.49" shape="410.46,405.66 419.54,408.60"/>
        <lane id=":10980284848_0_1" index="1" disallow="tram rail_urban rail rail_electric rail_fast ship container cable_car subway aircraft wheelchair scooter drone" speed="11.11" length="9.49" shape="409.52,408.72 418.51,411.63"/>
    </edge>
    <edge id=":10980284848_2" function="internal">
        <lane id=":10980284848_2_0" index="0" disallow="tram rail_urban rail rail_electric rail_fast ship container cable_car subway aircraft wheelchair scooter drone" speed="6.08" length="7.81" shape="409.52,408.72 412.10,409.72 413.81,410.87 414.64,412.16 414.59,413.61"/>
    </edge>
    <edge id=":10980284848_3" function="internal">
        <lane id=":10980284848_3_0" index="0" disallow="tram rail_urban rail rail_electric rail_fast ship container cable_car subway aircraft wheelchair scooter drone" speed="6.06" length="7.81" shape="411.54,412.64 412.34,411.43 413.77,410.86 415.82,410.93 418.51,411.63"/>
    </edge>
    <edge id=":10980284848_4" function="internal">
        <lane id=":10980284848_4_0" index="0" disallow="tram rail_urban rail rail_electric rail_fast ship container cable_car subway aircraft wheelchair scooter drone" speed="3.65" length="4.67" shape="411.54,412.64 412.67,411.74 413.55,411.60 414.19,412.22 414.59,413.61"/>
    </edge>
    <edge id=":10980284849_0" function="internal">
        <lane id=":10980284849_0_0" index="0" disallow="tram rail_urban rail rail_electric rail_fast ship container cable_car subway aircraft wheelchair scooter drone" speed="3.65" length="4.67" shape="400.74,457.26 399.61,458.17 398.73,458.31 398.08,457.68 397.68,456.30"/>
    </edge>
    <edge id=":11025029448_0" function="internal">
        <lane id=":11025029448_0_0" index="0" disallow="tram rail_urban rail rail_electric rail_fast ship container cable_car subway aircraft wheelchair scooter drone" speed="3.65" length="4.67" shape="616.00,822.95 617.18,823.78 617.56,824.59 617.14,825.38 615.92,826.15"/>
    </edge>
    <edge id=":11107032794_0" function="internal">
        <lane id=":11107032794_0_0" index="0" disallow="tram rail_urban rail rail_electric rail_fast ship container cable_car subway aircraft wheelchair scooter drone" speed="4.40" length="3.59" shape="124.03,945.91 123.11,945.70 122.03,945.47 121.12,945.45 120.67,945.88"/>
        <lane id=":11107032794_0_1" index="1" disallow="tram rail_urban rail rail_electric rail_fast ship container cable_car subway aircraft wheelchair scooter drone" speed="6.28" length="8.39" shape="124.53,942.75 121.66,942.53 119.54,942.90 118.15,943.86 117.50,945.41"/>
    </edge>
    <edge id=":11107032794_2" function="internal">
        <lane id=":11107032794_2_0" index="0" disallow="tram rail_urban rail rail_electric rail_fast ship container cable_car subway aircraft wheelchair scooter drone" speed="8.33" length="12.71" shape="124.53,942.75 120.78,942.68 118.22,943.47 115.64,944.35 111.86,944.56"/>
        <lane id=":11107032794_2_1" index="1" disallow="tram rail_urban rail rail_electric rail_fast ship container cable_car subway aircraft wheelchair scooter drone" speed="8.33" length="12.71" shape="124.53,942.75 112.12,941.37"/>
    </edge>
    <edge id=":11107032794_4" function="internal">
        <lane id=":11107032794_4_0" index="0" disallow="tram rail_urban rail rail_electric rail_fast ship container cable_car subway aircraft wheelchair scooter drone" speed="11.11" length="9.26" shape="121.68,936.60 120.67,945.88"/>
        <lane id=":11107032794_4_1" index="1" disallow="tram rail_urban rail rail_electric rail_fast ship container cable_car subway aircraft wheelchair scooter drone" speed="11.11" length="9.26" shape="118.49,936.29 117.50,945.41"/>
    </edge>
    <edge id=":11107032794_6" function="internal">
        <lane id=":11107032794_6_0" index="0" disallow="tram rail_urban rail rail_electric rail_fast ship container cable_car subway aircraft wheelchair scooter drone" speed="6.62" length="9.26" shape="118.49,936.29 117.90,938.69 116.63,940.34 114.71,941.23 112.12,941.37"/>
    </edge>
    <edge id=":11252289931_0" function="internal">
        <lane id=":11252289931_0_0" index="0" allow="private emergency authority army vip passenger hov taxi bus coach delivery truck trailer motorcycle evehicle custom1 custom2" speed="22.22" length="3.98" shape="735.66,981.48 736.91,981.49 737.77,981.54 738.62,981.66 739.86,981.85"/>
        <lane id=":11252289931_0_1" index="1" allow="private emergency authority army vip passenger hov taxi bus coach delivery truck trailer motorcycle evehicle custom1 custom2" speed="22.22" length="3.98" shape="735.65,984.68 736.75,984.69 737.51,984.74 738.26,984.84 739.36,985.01"/>
    </edge>
    <edge id=":11252289931_2" function="internal">
        <lane id=":11252289931_2_0" index="0" disallow="tram rail_urban rail rail_electric rail_fast ship container cable_car subway aircraft wheelchair scooter drone" speed="22.22" length="3.24" shape="735.64,987.88 736.60,987.88 737.26,987.92 737.91,988.05 738.83,988.30"/>
    </edge>
    <edge id=":11893688455_0" function="internal">
        <lane id=":11893688455_0_0" index="0" disallow="tram rail_urban rail rail_electric rail_fast ship container cable_car subway aircraft wheelchair scooter drone" speed="3.65" length="4.67" shape="9.40,274.99 8.65,273.75 8.63,272.86 9.33,272.31 10.76,272.09"/>
    </edge>
    <edge id=":12048665422_0" function="internal">
        <lane id=":12048665422_0_0" index="0" disallow="tram rail_urban rail rail_electric rail_fast ship container cable_car subway aircraft wheelchair scooter drone" speed="5.64" length="6.13" shape="267.46,989.09 266.13,989.08 264.16,989.16 262.36,989.42 261.53,989.98"/>
    </edge>
    <edge id=":12048665422_1" function="internal">
        <lane id=":12048665422_1_0" index="0" disallow="tram rail_urban rail rail_electric rail_fast ship container cable_car subway aircraft wheelchair scooter drone" speed="8.33" length="14.34" shape="267.46,989.09 263.13,989.02 260.16,988.86 257.22,988.47 252.95,987.71"/>
        <lane id=":12048665422_1_1" index="1" disallow="tram rail_urban rail rail_electric rail_fast ship container cable_car subway aircraft wheelchair scooter drone" speed="8.33" length="14.34" shape="267.50,985.89 263.33,985.83 260.47,985.67 257.64,985.29 253.53,984.56"/>
    </edge>
    <edge id=":12048665422_3" function="internal">
        <lane id=":12048665422_3_0" index="0" disallow="tram rail_urban rail rail_electric rail_fast ship container cable_car subway aircraft wheelchair scooter drone" speed="6.96" length="11.49" shape="267.50,985.89 263.73,985.48 261.15,984.35 259.77,982.51 259.57,979.94"/>
    </edge>
    <edge id=":12048665422_4" function="internal">
        <lane id=":12048665422_4_0" index="0" disallow="tram rail_urban rail rail_electric rail_fast ship container cable_car subway aircraft wheelchair scooter drone" speed="13.89" length="9.69" shape="262.74,980.37 261.53,989.98"/>
    </edge>
    <edge id=":12048665422_5" function="internal">
        <lane id=":12048665422_5_0" index="0" disallow="tram rail_urban rail rail_electric rail_fast ship container cable_car subway aircraft wheelchair scooter drone" speed="7.15" length="11.52" shape="262.74,980.37 261.87,982.79 260.05,984.29 257.27,984.88 253.53,984.56"/>
    </edge>
    <edge id=":12048665422_6" function="internal">
        <lane id=":12048665422_6_0" index="0" disallow="tram rail_urban rail rail_electric rail_fast ship container cable_car subway aircraft wheelchair scooter drone" speed="3.65" length="4.67" shape="262.74,980.37 261.79,981.45 260.94,981.74 260.20,981.23 259.57,979.94"/>
    </edge>
    <edge id=":12048665422_7" function="internal">
        <lane id=":12048665422_7_0" index="0" disallow="tram rail_urban rail rail_electric rail_fast ship container cable_car subway aircraft wheelchair scooter drone" speed="5.56" length="5.88" shape="258.34,989.69 257.68,988.99 256.05,988.39 254.22,987.95 252.95,987.71"/>
    </edge>
    <edge id=":12048665422_8" function="internal">
        <lane id=":12048665422_8_0" index="0" disallow="tram rail_urban rail rail_electric rail_fast ship container cable_car subway aircraft wheelchair scooter drone" speed="13.89" length="9.83" shape="258.34,989.69 259.57,979.94"/>
    </edge>
    <edge id=":12048665422_9" function="internal">
        <lane id=":12048665422_9_0" index="0" disallow="tram rail_urban rail rail_electric rail_fast ship container cable_car subway aircraft wheelchair scooter drone" speed="3.65" length="4.67" shape="258.34,989.69 259.25,988.57 260.08,988.24 260.84,988.72 261.53,989.98"/>
    </edge>
    <edge id=":12048665423_0" function="internal">
        <lane id=":12048665423_0_0" index="0" disallow="tram rail_urban rail rail_electric rail_fast ship container cable_car subway aircraft wheelchair scooter drone" speed="15.27" length="14.43" shape="318.16,985.47 313.57,985.30 310.13,984.90 307.10,984.60 303.77,984.70"/>
    </edge>
    <edge id=":12048665423_1" function="internal">
        <lane id=":12048665423_1_0" index="0" disallow="tram rail_urban rail rail_electric rail_fast ship container cable_car subway aircraft wheelchair scooter drone" speed="7.16" length="11.84" shape="318.13,982.27 314.24,981.93 311.52,980.85 309.98,979.01 309.61,976.43"/>
    </edge>
    <edge id=":12048665423_2" function="internal">
        <lane id=":12048665423_2_0" index="0" disallow="tram rail_urban rail rail_electric rail_fast ship container cable_car subway aircraft wheelchair scooter drone" speed="8.32" length="13.31" shape="312.80,976.62 312.04,979.80 310.29,982.21 307.53,983.84 303.77,984.70"/>
    </edge>
    <edge id=":12048665423_3" function="internal">
        <lane id=":12048665423_3_0" index="0" disallow="tram rail_urban rail rail_electric rail_fast ship container cable_car subway aircraft wheelchair scooter drone" speed="3.65" length="4.67" shape="312.80,976.62 311.93,977.77 311.11,978.12 310.33,977.67 309.61,976.43"/>
    </edge>
    <edge id=":12450442632_0" function="internal">
        <lane id=":12450442632_0_0" index="0" disallow="tram rail_urban rail rail_electric rail_fast ship container cable_car subway aircraft wheelchair scooter drone" speed="8.33" length="11.55" shape="135.51,948.04 124.23,945.94"/>
        <lane id=":12450442632_0_1" index="1" disallow="tram rail_urban rail rail_electric rail_fast ship container cable_car subway aircraft wheelchair scooter drone" speed="8.33" length="11.55" shape="136.15,944.90 124.72,942.78"/>
    </edge>
    <edge id=":12450442632_2" function="internal">
        <lane id=":12450442632_2_0" index="0" disallow="tram rail_urban rail rail_electric rail_fast ship container cable_car subway aircraft wheelchair scooter drone" speed="6.53" length="8.79" shape="136.15,944.90 133.93,944.10 132.46,942.75 131.75,940.87 131.80,938.45"/>
    </edge>
    <edge id=":12450442632_3" function="internal">
        <lane id=":12450442632_3_0" index="0" disallow="tram rail_urban rail rail_electric rail_fast ship container cable_car subway aircraft wheelchair scooter drone" speed="5.12" length="4.97" shape="128.92,947.02 128.37,946.46 126.98,946.17 125.39,946.03 124.23,945.94"/>
    </edge>
    <edge id=":12450442632_4" function="internal">
        <lane id=":12450442632_4_0" index="0" disallow="tram rail_urban rail rail_electric rail_fast ship container cable_car subway aircraft wheelchair scooter drone" speed="27.78" length="9.11" shape="128.92,947.02 128.97,944.33 128.69,942.47 128.45,940.62 128.64,937.94"/>
        <lane id=":12450442632_4_1" index="1" disallow="tram rail_urban rail rail_electric rail_fast ship container cable_car subway aircraft wheelchair scooter drone" speed="27.78" length="9.11" shape="128.92,947.02 129.47,944.41 130.27,942.72 131.12,941.04 131.80,938.45"/>
    </edge>
    <edge id=":12450442633_0" function="internal">
        <lane id=":12450442633_0_0" index="0" disallow="tram rail_urban rail rail_electric rail_fast ship container cable_car subway aircraft wheelchair scooter drone" speed="8.33" length="9.05" shape="133.25,951.43 124.43,949.89"/>
        <lane id=":12450442633_0_1" index="1" disallow="tram rail_urban rail rail_electric rail_fast ship container cable_car subway aircraft wheelchair scooter drone" speed="8.33" length="9.05" shape="133.88,948.29 124.88,946.72"/>
    </edge>
    <edge id=":12450442633_2" function="internal">
        <lane id=":12450442633_2_0" index="0" disallow="tram rail_urban rail rail_electric rail_fast ship container cable_car subway aircraft wheelchair scooter drone" speed="5.30" length="5.24" shape="133.88,948.29 132.68,948.18 130.99,948.06 129.50,947.78 128.90,947.22"/>
    </edge>
    <edge id=":13062091913_0" function="internal">
        <lane id=":13062091913_0_0" index="0" disallow="tram rail_urban rail rail_electric rail_fast ship container cable_car subway aircraft wheelchair scooter drone" speed="15.27" length="11.10" shape="282.61,987.00 279.57,987.07 277.32,986.69 274.96,986.20 271.61,985.93"/>
    </edge>
    <edge id=":13062091913_1" function="internal">
        <lane id=":13062091913_1_0" index="0" disallow="tram rail_urban rail rail_electric rail_fast ship container cable_car subway aircraft wheelchair scooter drone" speed="5.32" length="5.77" shape="277.21,989.15 276.48,988.72 274.78,988.77 272.88,989.00 271.58,989.13"/>
    </edge>
    <edge id=":1596076544_0" function="internal">
        <lane id=":1596076544_0_0" index="0" disallow="tram rail_urban rail rail_electric rail_fast ship container cable_car subway aircraft wheelchair scooter drone" speed="3.65" length="4.67" shape="1142.47,594.99 1143.50,595.99 1143.75,596.85 1143.22,597.56 1141.89,598.13"/>
    </edge>
    <edge id=":1596076622_0" function="internal">
        <lane id=":1596076622_0_0" index="0" disallow="tram rail_urban rail rail_electric rail_fast ship container cable_car subway aircraft wheelchair scooter drone" speed="11.11" length="9.76" shape="462.49,424.14 465.24,425.20 467.11,425.97 468.93,426.83 471.56,428.17"/>
        <lane id=":1596076622_0_1" index="1" disallow="tram rail_urban rail rail_electric rail_fast ship container cable_car subway aircraft wheelchair scooter drone" speed="11.11" length="9.76" shape="461.35,427.13 464.01,428.15 465.81,428.89 467.57,429.73 470.10,431.01"/>
    </edge>
    <edge id=":1596076622_2" function="internal">
        <lane id=":1596076622_2_0" index="0" disallow="tram rail_urban rail rail_electric rail_fast ship container cable_car subway aircraft wheelchair scooter drone" speed="6.02" length="7.94" shape="461.35,427.13 463.89,428.32 465.50,429.62 466.18,431.01 465.94,432.51"/>
    </edge>
    <edge id=":1596076622_3" function="internal">
        <lane id=":1596076622_3_0" index="0" disallow="tram rail_urban rail rail_electric rail_fast ship container cable_car subway aircraft wheelchair scooter drone" speed="6.05" length="7.93" shape="463.02,431.19 463.99,430.02 465.49,429.61 467.53,429.94 470.10,431.01"/>
    </edge>
    <edge id=":1596076622_4" function="internal">
        <lane id=":1596076622_4_0" index="0" disallow="tram rail_urban rail rail_electric rail_fast ship container cable_car subway aircraft wheelchair scooter drone" speed="3.65" length="4.67" shape="463.02,431.19 464.25,430.43 465.14,430.39 465.71,431.09 465.94,432.51"/>
    </edge>
    <edge id=":1859904857_0" function="internal">
        <lane id=":1859904857_0_0" index="0" disallow="tram rail_urban rail rail_electric rail_fast ship container cable_car subway aircraft wheelchair scooter drone" speed="5.79" length="10.67" shape="591.40,514.07 588.38,514.05 586.90,515.12 586.95,517.30 588.54,520.57"/>
    </edge>
    <edge id=":1859904857_1" function="internal">
        <lane id=":1859904857_1_0" index="0" disallow="tram rail_urban rail rail_electric rail_fast ship container cable_car subway aircraft wheelchair scooter drone" speed="3.86" length="4.83" shape="591.40,514.07 590.02,513.50 589.46,512.77 589.70,511.88 590.76,510.83"/>
    </edge>
    <edge id=":1859904857_2" function="internal">
        <lane id=":1859904857_2_0" index="0" disallow="tram rail_urban rail rail_electric rail_fast ship container cable_car subway aircraft wheelchair scooter drone" speed="9.70" length="11.62" shape="579.72,508.99 581.71,510.37 584.22,511.14 587.23,511.29 590.76,510.83"/>
    </edge>
    <edge id=":1859904857_3" function="internal">
        <lane id=":1859904857_3_0" index="0" disallow="tram rail_urban rail rail_electric rail_fast ship container cable_car subway aircraft wheelchair scooter drone" speed="11.11" length="14.24" shape="579.72,508.99 582.76,512.07 584.65,514.36 586.29,516.86 588.54,520.57"/>
        <lane id=":1859904857_3_1" index="1" disallow="tram rail_urban rail rail_electric rail_fast ship container cable_car subway aircraft wheelchair scooter drone" speed="11.11" length="14.24" shape="577.49,511.28 580.36,514.20 582.15,516.37 583.69,518.74 585.82,522.25"/>
    </edge>
    <edge id=":2399259678_0" function="internal">
        <lane id=":2399259678_0_0" index="0" disallow="tram rail_urban rail rail_electric rail_fast ship container cable_car subway aircraft wheelchair scooter drone" speed="9.72" length="0.27" shape="229.80,985.52 229.51,985.41"/>
        <lane id=":2399259678_0_1" index="1" disallow="tram rail_urban rail rail_electric rail_fast ship container cable_car subway aircraft wheelchair scooter drone" speed="9.72" length="0.27" shape="230.91,982.52 230.70,982.43"/>
    </edge>
    <edge id=":308769348_0" function="internal">
        <lane id=":308769348_0_0" index="0" disallow="tram rail_urban rail rail_electric rail_fast ship container cable_car subway aircraft wheelchair scooter drone" speed="22.22" length="12.24" shape="333.11,739.60 330.07,740.94 327.47,742.01 324.82,742.89 321.60,743.69"/>
    </edge>
    <edge id=":308769348_1" function="internal">
        <lane id=":308769348_1_0" index="0" disallow="tram rail_urban rail rail_electric rail_fast ship container cable_car subway aircraft wheelchair scooter drone" speed="5.91" length="11.88" shape="333.11,739.60 329.19,740.90 326.92,740.63 326.30,738.81 327.31,735.42"/>
    </edge>
    <edge id=":308769348_2" function="internal">
        <lane id=":308769348_2_0" index="0" disallow="tram rail_urban rail rail_electric rail_fast ship container cable_car subway aircraft wheelchair scooter drone" speed="9.86" length="2.06" shape="330.24,736.72 329.21,738.50"/>
    </edge>
    <edge id=":308769348_3" function="internal">
        <lane id=":308769348_3_0" index="0" disallow="tram rail_urban rail rail_electric rail_fast ship container cable_car subway aircraft wheelchair scooter drone" speed="3.65" length="1.32" shape="330.24,736.72 329.13,737.42"/>
    </edge>
    <edge id=":308769348_4" function="internal">
        <lane id=":308769348_4_0" index="0" disallow="tram rail_urban rail rail_electric rail_fast ship container cable_car subway aircraft wheelchair scooter drone" speed="9.86" length="9.48" shape="329.21,738.50 328.76,739.28 326.83,741.30 324.44,742.77 321.60,743.69"/>
    </edge>
    <edge id=":308769348_5" function="internal">
        <lane id=":308769348_5_0" index="0" disallow="tram rail_urban rail rail_electric rail_fast ship container cable_car subway aircraft wheelchair scooter drone" speed="3.65" length="3.36" shape="329.13,737.42 329.02,737.49 328.13,737.53 327.56,736.84 327.31,735.42"/>
    </edge>
    <edge id=":308769352_0" function="internal">
        <lane id=":308769352_0_0" index="0" disallow="tram rail_urban rail rail_electric rail_fast ship container cable_car subway aircraft wheelchair scooter drone" speed="6.03" length="9.07" shape="505.85,644.58 504.50,642.38 502.85,641.34 500.90,641.45 498.65,642.73"/>
    </edge>
    <edge id=":308769352_1" function="internal">
        <lane id=":308769352_1_0" index="0" disallow="tram rail_urban rail rail_electric rail_fast ship container cable_car subway aircraft wheelchair scooter drone" speed="3.65" length="4.67" shape="505.85,644.58 506.11,643.16 506.68,642.48 507.58,642.53 508.79,643.31"/>
    </edge>
    <edge id=":308769352_2" function="internal">
        <lane id=":308769352_2_0" index="0" disallow="tram rail_urban rail rail_electric rail_fast ship container cable_car subway aircraft wheelchair scooter drone" speed="7.02" length="9.98" shape="510.98,634.66 509.04,636.17 508.02,638.12 507.94,640.50 508.79,643.31"/>
    </edge>
    <edge id=":308769352_3" function="internal">
        <lane id=":308769352_3_0" index="0" disallow="tram rail_urban rail rail_electric rail_fast ship container cable_car subway aircraft wheelchair scooter drone" speed="22.22" length="14.75" shape="510.98,634.66 507.75,636.49 504.65,638.43 501.63,640.51 498.65,642.73"/>
    </edge>
    <edge id=":308769355_0" function="internal">
        <lane id=":308769355_0_0" index="0" disallow="tram rail_urban rail rail_electric rail_fast ship container cable_car subway aircraft wheelchair scooter drone" speed="5.79" length="9.15" shape="640.82,592.31 638.17,592.77 636.68,593.92 636.36,595.78 637.20,598.34"/>
    </edge>
    <edge id=":308769355_1" function="internal">
        <lane id=":308769355_1_0" index="0" disallow="tram rail_urban rail rail_electric rail_fast ship container cable_car subway aircraft wheelchair scooter drone" speed="22.22" length="16.53" shape="640.82,592.31 636.82,592.32 632.52,592.30 628.25,592.52 624.36,593.24"/>
    </edge>
    <edge id=":308769355_2" function="internal">
        <lane id=":308769355_2_0" index="0" disallow="tram rail_urban rail rail_electric rail_fast ship container cable_car subway aircraft wheelchair scooter drone" speed="3.65" length="4.67" shape="640.82,592.31 639.60,591.55 639.17,590.76 639.54,589.95 640.72,589.11"/>
    </edge>
    <edge id=":308769355_3" function="internal">
        <lane id=":308769355_3_0" index="0" disallow="tram rail_urban rail rail_electric rail_fast ship container cable_car subway aircraft wheelchair scooter drone" speed="9.70" length="12.54" shape="629.60,584.60 631.45,586.68 633.92,588.12 637.01,588.93 640.72,589.11"/>
    </edge>
    <edge id=":308769355_4" function="internal">
        <lane id=":308769355_4_0" index="0" disallow="tram rail_urban rail rail_electric rail_fast ship container cable_car subway aircraft wheelchair scooter drone" speed="11.11" length="15.53" shape="629.60,584.60 632.10,588.54 633.70,591.30 635.16,594.15 637.20,598.34"/>
        <lane id=":308769355_4_1" index="1" disallow="tram rail_urban rail rail_electric rail_fast ship container cable_car subway aircraft wheelchair scooter drone" speed="11.11" length="15.53" shape="626.91,586.34 629.35,590.18 630.91,592.88 632.33,595.65 634.33,599.75"/>
    </edge>
    <edge id=":308769355_6" function="internal">
        <lane id=":308769355_6_0" index="0" disallow="tram rail_urban rail rail_electric rail_fast ship container cable_car subway aircraft wheelchair scooter drone" speed="5.98" length="9.08" shape="626.91,586.34 628.00,588.70 627.94,590.64 626.72,592.15 624.36,593.24"/>
    </edge>
    <edge id=":308769463_0" function="internal">
        <lane id=":308769463_0_0" index="0" disallow="tram rail_urban rail rail_electric rail_fast ship container cable_car subway aircraft wheelchair scooter drone" speed="3.65" length="4.67" shape="1448.83,918.95 1449.26,920.32 1449.06,921.20 1448.25,921.57 1446.81,921.43"/>
    </edge>
    <edge id=":308770417_0" function="internal">
        <lane id=":308770417_0_0" index="0" disallow="tram rail_urban rail rail_electric rail_fast ship container cable_car subway aircraft wheelchair scooter drone" speed="6.52" length="8.86" shape="433.49,413.33 435.86,413.78 437.83,413.36 439.39,412.09 440.55,409.96"/>
    </edge>
    <edge id=":308770417_1" function="internal">
        <lane id=":308770417_1_0" index="0" disallow="tram rail_urban rail rail_electric rail_fast ship container cable_car subway aircraft wheelchair scooter drone" speed="11.11" length="10.84" shape="433.49,413.33 443.75,417.02"/>
        <lane id=":308770417_1_1" index="1" disallow="tram rail_urban rail rail_electric rail_fast ship container cable_car subway aircraft wheelchair scooter drone" speed="11.11" length="10.84" shape="432.46,416.36 442.61,420.02"/>
    </edge>
    <edge id=":308770488_0" function="internal">
        <lane id=":308770488_0_0" index="0" disallow="tram rail_urban rail rail_electric rail_fast ship container cable_car subway aircraft wheelchair scooter drone" speed="6.72" length="8.83" shape="530.28,458.49 529.27,460.80 529.11,462.88 529.80,464.73 531.35,466.36"/>
        <lane id=":308770488_0_1" index="1" disallow="tram rail_urban rail rail_electric rail_fast ship container cable_car subway aircraft wheelchair scooter drone" speed="8.19" length="13.56" shape="527.53,456.86 526.02,460.34 525.83,463.51 526.96,466.36 529.40,468.90"/>
    </edge>
    <edge id=":308770488_2" function="internal">
        <lane id=":308770488_2_0" index="0" disallow="tram rail_urban rail rail_electric rail_fast ship container cable_car subway aircraft wheelchair scooter drone" speed="11.11" length="13.45" shape="520.52,458.30 531.35,466.36"/>
        <lane id=":308770488_2_1" index="1" disallow="tram rail_urban rail rail_electric rail_fast ship container cable_car subway aircraft wheelchair scooter drone" speed="11.11" length="13.45" shape="518.64,460.90 529.40,468.90"/>
    </edge>
    <edge id=":310178305_0" function="internal">
        <lane id=":310178305_0_0" index="0" disallow="tram rail_urban rail rail_electric rail_fast ship container cable_car subway aircraft wheelchair scooter drone" speed="11.11" length="9.61" shape="260.52,379.90 270.19,380.84"/>
        <lane id=":310178305_0_1" index="1" disallow="tram rail_urban rail rail_electric rail_fast ship container cable_car subway aircraft wheelchair scooter drone" speed="11.11" length="9.61" shape="260.31,383.09 269.77,384.01"/>
    </edge>
    <edge id=":310178305_2" function="internal">
        <lane id=":310178305_2_0" index="0" disallow="tram rail_urban rail rail_electric rail_fast ship container cable_car subway aircraft wheelchair scooter drone" speed="6.01" length="7.98" shape="260.31,383.09 263.09,383.49 265.00,384.27 266.05,385.42 266.24,386.95"/>
    </edge>
    <edge id=":310178305_3" function="internal">
        <lane id=":310178305_3_0" index="0" disallow="tram rail_urban rail rail_electric rail_fast ship container cable_car subway aircraft wheelchair scooter drone" speed="6.16" length="7.92" shape="263.07,386.50 263.67,385.10 264.98,384.23 267.02,383.86 269.77,384.01"/>
    </edge>
    <edge id=":310178305_4" function="internal">
        <lane id=":310178305_4_0" index="0" disallow="tram rail_urban rail rail_electric rail_fast ship container cable_car subway aircraft wheelchair scooter drone" speed="3.65" length="4.67" shape="263.07,386.50 264.04,385.42 264.88,385.14 265.62,385.65 266.24,386.95"/>
    </edge>
    <edge id=":3689017617_0" function="internal">