<?xml version="1.0" encoding="UTF-8"?>

<!-- generated on 2025-10-29T01:33:32.791223+05:30 by Eclipse SUMO netconvert v1_24_0+1454-51d0da9119e
<netconvertConfiguration xmlns:xsi="http://www.w3.org/2001/XMLSchema-instance" xsi:noNamespaceSchemaLocation="http://sumo.dlr.de/xsd/netconvertConfiguration.xsd">

    <input>
        <osm-files value="hebbal.osm"/>
    </input>

    <output>
        <output-file value="hebbal.net.xml"/>
    </output>

    <projection>
        <proj.utm value="true"/>
    </projection>

    <processing>
        <geometry.remove value="true"/>
    </processing>

    <tls_building>
        <tls.discard-simple value="true"/>
        <tls.join value="true"/>
        <tls.guess-signals value="true"/>
    </tls_building>

    <ramp_guessing>
        <ramps.guess value="true"/>
    </ramp_guessing>

    <edge_removal>
        <keep-edges.by-vclass value="passenger"/>
        <remove-edges.isolated value="true"/>
    </edge_removal>

    <junctions>
        <junctions.join value="true"/>
    </junctions>

</netconvertConfiguration>
-->

<net version="1.20" junctionCornerDetail="5" limitTurnSpeed="5.50" xmlns:xsi="http://www.w3.org/2001/XMLSchema-instance" xsi:noNamespaceSchemaLocation="http://sumo.dlr.de/xsd/net_file.xsd">

    <location netOffset="-779662.73,-1441723.49" convBoundary="0.00,0.00,3785.11,2093.84" origBoundary="77.505888,12.857993,77.783066,13.074950" projParameter="+proj=utm +zone=43 +ellps=WGS84 +datum=WGS84 +units=m +no_defs"/>

    <type id="highway.living_street" priority="2" numLanes="1" speed="2.78" disallow="tram rail_urban rail rail_electric rail_fast ship container cable_car subway aircraft wheelchair scooter drone" oneway="0"/>
    <type id="highway.residential" priority="3" numLanes="1" speed="13.89" disallow="tram rail_urban rail rail_electric rail_fast ship container cable_car subway aircraft wheelchair scooter drone" oneway="0"/>
    <type id="highway.tertiary" priority="10" numLanes="1" speed="22.22" disallow="tram rail_urban rail rail_electric rail_fast ship container cable_car subway aircraft wheelchair scooter drone" oneway="0"/>
    <type id="highway.trunk" priority="13" numLanes="2" speed="27.78" disallow="pedestrian bicycle tram rail_urban rail rail_electric rail_fast ship container cable_car subway aircraft wheelchair scooter drone" oneway="0"/>
    <type id="highway.trunk_link" priority="8" numLanes="1" speed="22.22" disallow="pedestrian bicycle tram rail_urban rail rail_electric rail_fast ship container cable_car subway aircraft wheelchair scooter drone" oneway="0"/>

    <edge id=":10091468346_0" function="internal">
        <lane id=":10091468346_0_0" index="0" disallow="tram rail_urban rail rail_electric rail_fast ship container cable_car subway aircraft wheelchair scooter drone" speed="13.89" length="14.41" shape="1440.99,1071.97 1439.61,1057.63"/>
    </edge>
    <edge id=":10091468346_1" function="internal">
        <lane id=":10091468346_1_0" index="0" disallow="tram rail_urban rail rail_electric rail_fast ship container cable_car subway aircraft wheelchair scooter drone" speed="7.94" length="4.10" shape="1440.99,1071.97 1441.17,1068.02 1441.24,1067.89"/>
    </edge>
    <edge id=":10091468346_2" function="internal">
        <lane id=":10091468346_2_0" index="0" disallow="tram rail_urban rail rail_electric rail_fast ship container cable_car subway aircraft wheelchair scooter drone" speed="3.65" length="1.44" shape="1440.99,1071.97 1441.67,1070.70"/>
    </edge>
    <edge id=":10091468346_9" function="internal">
        <lane id=":10091468346_9_0" index="0" disallow="tram rail_urban rail rail_electric rail_fast ship container cable_car subway aircraft wheelchair scooter drone" speed="7.94" length="10.23" shape="1441.24,1067.89 1442.58,1065.13 1445.22,1063.29 1449.09,1062.49"/>
    </edge>
    <edge id=":10091468346_10" function="internal">
        <lane id=":10091468346_10_0" index="0" disallow="tram rail_urban rail rail_electric rail_fast ship container cable_car subway aircraft wheelchair scooter drone" speed="3.65" length="3.23" shape="1441.67,1070.70 1442.43,1070.22 1443.27,1070.54 1444.18,1071.66"/>
    </edge>
    <edge id=":10091468346_3" function="internal">
        <lane id=":10091468346_3_0" index="0" disallow="tram rail_urban rail rail_electric rail_fast ship container cable_car subway aircraft wheelchair scooter drone" speed="6.43" length="9.03" shape="1449.28,1065.69 1446.84,1066.19 1445.18,1067.35 1444.29,1069.17 1444.18,1071.66"/>
    </edge>
    <edge id=":10091468346_4" function="internal">
        <lane id=":10091468346_4_0" index="0" disallow="tram rail_urban rail rail_electric rail_fast ship container cable_car subway aircraft wheelchair scooter drone" speed="8.12" length="14.25" shape="1449.28,1065.69 1445.36,1065.38 1442.44,1063.94 1440.52,1061.35 1439.61,1057.63"/>
    </edge>
    <edge id=":10091468346_5" function="internal">
        <lane id=":10091468346_5_0" index="0" disallow="tram rail_urban rail rail_electric rail_fast ship container cable_car subway aircraft wheelchair scooter drone" speed="3.65" length="4.67" shape="1449.28,1065.69 1448.04,1064.96 1447.59,1064.19 1447.94,1063.36 1449.09,1062.49"/>
    </edge>
    <edge id=":10091468346_6" function="internal">
        <lane id=":10091468346_6_0" index="0" disallow="tram rail_urban rail rail_electric rail_fast ship container cable_car subway aircraft wheelchair scooter drone" speed="6.65" length="9.22" shape="1442.80,1057.32 1443.39,1059.71 1444.63,1061.37 1446.53,1062.30 1449.09,1062.49"/>
    </edge>
    <edge id=":10091468346_7" function="internal">
        <lane id=":10091468346_7_0" index="0" disallow="tram rail_urban rail rail_electric rail_fast ship container cable_car subway aircraft wheelchair scooter drone" speed="13.89" length="14.41" shape="1442.80,1057.32 1444.18,1071.66"/>
    </edge>
    <edge id=":10091468346_8" function="internal">
        <lane id=":10091468346_8_0" index="0" disallow="tram rail_urban rail rail_electric rail_fast ship container cable_car subway aircraft wheelchair scooter drone" speed="3.65" length="1.44" shape="1442.80,1057.32 1442.11,1058.59"/>
    </edge>
    <edge id=":10091468346_11" function="internal">
        <lane id=":10091468346_11_0" index="0" disallow="tram rail_urban rail rail_electric rail_fast ship container cable_car subway aircraft wheelchair scooter drone" speed="3.65" length="3.23" shape="1442.11,1058.59 1441.36,1059.07 1440.52,1058.74 1439.61,1057.63"/>
    </edge>
    <edge id=":10091468347_0" function="internal">
        <lane id=":10091468347_0_0" index="0" disallow="tram rail_urban rail rail_electric rail_fast ship container cable_car subway aircraft wheelchair scooter drone" speed="3.65" length="4.67" shape="1498.95,1059.50 1500.20,1060.23 1500.65,1061.00 1500.30,1061.83 1499.15,1062.70"/>
    </edge>
    <edge id=":10091468349_0" function="internal">
        <lane id=":10091468349_0_0" index="0" disallow="tram rail_urban rail rail_electric rail_fast ship container cable_car subway aircraft wheelchair scooter drone" speed="13.89" length="14.43" shape="1404.62,1122.70 1390.19,1122.72"/>
    </edge>
    <edge id=":10091468349_1" function="internal">
        <lane id=":10091468349_1_0" index="0" disallow="tram rail_urban rail rail_electric rail_fast ship container cable_car subway aircraft wheelchair scooter drone" speed="8.31" length="3.93" shape="1404.62,1122.70 1400.90,1122.15 1400.75,1122.06"/>
    </edge>
    <edge id=":10091468349_2" function="internal">
        <lane id=":10091468349_2_0" index="0" disallow="tram rail_urban rail rail_electric rail_fast ship container cable_car subway aircraft wheelchair scooter drone" speed="3.65" length="1.44" shape="1404.62,1122.70 1403.41,1121.90"/>
    </edge>
    <edge id=":10091468349_9" function="internal">
        <lane id=":10091468349_9_0" index="0" disallow="tram rail_urban rail rail_electric rail_fast ship container cable_car subway aircraft wheelchair scooter drone" speed="8.31" length="10.41" shape="1400.75,1122.06 1398.12,1120.48 1396.29,1117.69 1395.41,1113.79"/>
    </edge>
    <edge id=":10091468349_10" function="internal">
        <lane id=":10091468349_10_0" index="0" disallow="tram rail_urban rail rail_electric rail_fast ship container cable_car subway aircraft wheelchair scooter drone" speed="3.65" length="3.23" shape="1403.41,1121.90 1403.01,1121.10 1403.41,1120.30 1404.61,1119.50"/>
    </edge>
    <edge id=":10091468349_3" function="internal">
        <lane id=":10091468349_3_0" index="0" disallow="tram rail_urban rail rail_electric rail_fast ship container cable_car subway aircraft wheelchair scooter drone" speed="6.88" length="9.51" shape="1398.59,1113.49 1399.18,1116.12 1400.38,1118.00 1402.19,1119.13 1404.61,1119.50"/>
    </edge>
    <edge id=":10091468349_4" function="internal">
        <lane id=":10091468349_4_0" index="0" disallow="tram rail_urban rail rail_electric rail_fast ship container cable_car subway aircraft wheelchair scooter drone" speed="7.85" length="14.55" shape="1398.59,1113.49 1398.39,1117.52 1396.92,1120.41 1394.19,1122.14 1390.19,1122.72"/>
    </edge>
    <edge id=":10091468349_5" function="internal">
        <lane id=":10091468349_5_0" index="0" disallow="tram rail_urban rail rail_electric rail_fast ship container cable_car subway aircraft wheelchair scooter drone" speed="3.65" length="4.67" shape="1398.59,1113.49 1397.91,1114.76 1397.15,1115.23 1396.31,1114.91 1395.41,1113.79"/>
    </edge>
    <edge id=":10091468349_6" function="internal">
        <lane id=":10091468349_6_0" index="0" disallow="tram rail_urban rail rail_electric rail_fast ship container cable_car subway aircraft wheelchair scooter drone" speed="6.32" length="9.04" shape="1390.18,1119.52 1392.67,1119.16 1394.37,1118.08 1395.28,1116.29 1395.41,1113.79"/>
    </edge>
    <edge id=":10091468349_7" function="internal">
        <lane id=":10091468349_7_0" index="0" disallow="tram rail_urban rail rail_electric rail_fast ship container cable_car subway aircraft wheelchair scooter drone" speed="13.89" length="14.43" shape="1390.18,1119.52 1404.61,1119.50"/>
    </edge>
    <edge id=":10091468349_8" function="internal">
        <lane id=":10091468349_8_0" index="0" disallow="tram rail_urban rail rail_electric rail_fast ship container cable_car subway aircraft wheelchair scooter drone" speed="3.65" length="1.44" shape="1390.18,1119.52 1391.39,1120.32"/>
    </edge>
    <edge id=":10091468349_11" function="internal">
        <lane id=":10091468349_11_0" index="0" disallow="tram rail_urban rail rail_electric rail_fast ship container cable_car subway aircraft wheelchair scooter drone" speed="3.65" length="3.23" shape="1391.39,1120.32 1391.79,1121.12 1391.39,1121.92 1390.19,1122.72"/>
    </edge>
    <edge id=":10091468350_0" function="internal">
        <lane id=":10091468350_0_0" index="0" disallow="tram rail_urban rail rail_electric rail_fast ship container cable_car subway aircraft wheelchair scooter drone" speed="3.65" length="4.67" shape="1391.73,1073.90 1392.41,1072.63 1393.17,1072.16 1394.01,1072.48 1394.91,1073.60"/>
    </edge>
    <edge id=":10091468351_0" function="internal">
        <lane id=":10091468351_0_0" index="0" disallow="tram rail_urban rail rail_electric rail_fast ship container cable_car subway aircraft wheelchair scooter drone" speed="13.89" length="12.85" shape="1292.39,1151.11 1279.54,1150.91"/>
    </edge>
    <edge id=":10091468351_1" function="internal">
        <lane id=":10091468351_1_0" index="0" disallow="tram rail_urban rail rail_electric rail_fast ship container cable_car subway aircraft wheelchair scooter drone" speed="8.18" length="4.20" shape="1292.39,1151.11 1288.59,1150.59 1288.28,1150.41"/>
    </edge>
    <edge id=":10091468351_2" function="internal">
        <lane id=":10091468351_2_0" index="0" disallow="tram rail_urban rail rail_electric rail_fast ship container cable_car subway aircraft wheelchair scooter drone" speed="3.65" length="1.44" shape="1292.39,1151.11 1291.18,1150.32"/>
    </edge>
    <edge id=":10091468351_9" function="internal">
        <lane id=":10091468351_9_0" index="0" disallow="tram rail_urban rail rail_electric rail_fast ship container cable_car subway aircraft wheelchair scooter drone" speed="8.18" length="10.24" shape="1288.28,1150.41 1285.81,1148.93 1284.04,1146.11 1283.29,1142.15"/>
    </edge>
    <edge id=":10091468351_10" function="internal">
        <lane id=":10091468351_10_0" index="0" disallow="tram rail_urban rail rail_electric rail_fast ship container cable_car subway aircraft wheelchair scooter drone" speed="3.65" length="3.23" shape="1291.18,1150.32 1290.77,1149.53 1291.16,1148.72 1292.35,1147.91"/>
    </edge>
    <edge id=":10091468351_3" function="internal">
        <lane id=":10091468351_3_0" index="0" disallow="tram rail_urban rail rail_electric rail_fast ship container cable_car subway aircraft wheelchair scooter drone" speed="6.72" length="9.42" shape="1286.49,1141.98 1286.97,1144.60 1288.11,1146.47 1289.90,1147.57 1292.35,1147.91"/>
    </edge>
    <edge id=":10091468351_4" function="internal">
        <lane id=":10091468351_4_0" index="0" disallow="tram rail_urban rail rail_electric rail_fast ship container cable_car subway aircraft wheelchair scooter drone" speed="7.46" length="13.17" shape="1286.49,1141.98 1286.24,1146.03 1285.00,1148.87 1282.77,1150.50 1279.54,1150.91"/>
    </edge>
    <edge id=":10091468351_5" function="internal">
        <lane id=":10091468351_5_0" index="0" disallow="tram rail_urban rail rail_electric rail_fast ship container cable_car subway aircraft wheelchair scooter drone" speed="3.65" length="4.67" shape="1286.49,1141.98 1285.75,1143.22 1284.97,1143.66 1284.15,1143.30 1283.29,1142.15"/>
    </edge>
    <edge id=":10091468351_6" function="internal">
        <lane id=":10091468351_6_0" index="0" disallow="tram rail_urban rail rail_electric rail_fast ship container cable_car subway aircraft wheelchair scooter drone" speed="5.84" length="7.63" shape="1279.71,1147.71 1281.39,1147.44 1282.55,1146.42 1283.18,1144.66 1283.29,1142.15"/>
    </edge>
    <edge id=":10091468351_7" function="internal">
        <lane id=":10091468351_7_0" index="0" disallow="tram rail_urban rail rail_electric rail_fast ship container cable_car subway aircraft wheelchair scooter drone" speed="13.89" length="12.64" shape="1279.71,1147.71 1292.35,1147.91"/>
    </edge>
    <edge id=":10091468351_8" function="internal">
        <lane id=":10091468351_8_0" index="0" disallow="tram rail_urban rail rail_electric rail_fast ship container cable_car subway aircraft wheelchair scooter drone" speed="3.65" length="1.44" shape="1279.71,1147.71 1280.87,1148.58"/>
    </edge>
    <edge id=":10091468351_11" function="internal">
        <lane id=":10091468351_11_0" index="0" disallow="tram rail_urban rail rail_electric rail_fast ship container cable_car subway aircraft wheelchair scooter drone" speed="3.65" length="3.23" shape="1280.87,1148.58 1281.22,1149.40 1280.78,1150.17 1279.54,1150.91"/>
    </edge>
    <edge id=":10091468352_0" function="internal">
        <lane id=":10091468352_0_0" index="0" disallow="tram rail_urban rail rail_electric rail_fast ship container cable_car subway aircraft wheelchair scooter drone" speed="6.37" length="9.04" shape="1525.91,1156.73 1523.42,1156.88 1521.62,1157.80 1520.53,1159.50 1520.13,1161.96"/>
    </edge>
    <edge id=":10091468352_1" function="internal">
        <lane id=":10091468352_1_0" index="0" disallow="tram rail_urban rail rail_electric rail_fast ship container cable_car subway aircraft wheelchair scooter drone" speed="8.23" length="14.29" shape="1525.91,1156.73 1522.03,1155.87 1519.28,1154.05 1517.66,1151.26 1517.16,1147.50"/>
    </edge>
    <edge id=":10091468352_2" function="internal">
        <lane id=":10091468352_2_0" index="0" disallow="tram rail_urban rail rail_electric rail_fast ship container cable_car subway aircraft wheelchair scooter drone" speed="3.65" length="4.67" shape="1525.91,1156.73 1524.78,1155.83 1524.45,1155.00 1524.91,1154.23 1526.18,1153.54"/>
    </edge>
    <edge id=":10091468352_3" function="internal">
        <lane id=":10091468352_3_0" index="0" disallow="tram rail_urban rail rail_electric rail_fast ship container cable_car subway aircraft wheelchair scooter drone" speed="6.78" length="9.38" shape="1520.36,1147.55 1520.69,1149.99 1521.77,1151.80 1523.60,1152.98 1526.18,1153.54"/>
    </edge>
    <edge id=":10091468352_4" function="internal">
        <lane id=":10091468352_4_0" index="0" disallow="tram rail_urban rail rail_electric rail_fast ship container cable_car subway aircraft wheelchair scooter drone" speed="13.89" length="14.41" shape="1520.36,1147.55 1520.13,1161.96"/>
    </edge>
    <edge id=":10091468352_5" function="internal">
        <lane id=":10091468352_5_0" index="0" disallow="tram rail_urban rail rail_electric rail_fast ship container cable_car subway aircraft wheelchair scooter drone" speed="3.65" length="1.44" shape="1520.36,1147.55 1519.54,1148.74"/>
    </edge>
    <edge id=":10091468352_9" function="internal">
        <lane id=":10091468352_9_0" index="0" disallow="tram rail_urban rail rail_electric rail_fast ship container cable_car subway aircraft wheelchair scooter drone" speed="3.65" length="3.23" shape="1519.54,1148.74 1518.74,1149.13 1517.94,1148.71 1517.16,1147.50"/>
    </edge>
    <edge id=":10091468352_6" function="internal">
        <lane id=":10091468352_6_0" index="0" disallow="tram rail_urban rail rail_electric rail_fast ship container cable_car subway aircraft wheelchair scooter drone" speed="13.89" length="14.41" shape="1516.93,1161.91 1517.16,1147.50"/>
    </edge>
    <edge id=":10091468352_7" function="internal">
        <lane id=":10091468352_7_0" index="0" disallow="tram rail_urban rail rail_electric rail_fast ship container cable_car subway aircraft wheelchair scooter drone" speed="7.89" length="4.12" shape="1516.93,1161.91 1517.56,1157.97 1517.63,1157.86"/>
    </edge>
    <edge id=":10091468352_8" function="internal">
        <lane id=":10091468352_8_0" index="0" disallow="tram rail_urban rail rail_electric rail_fast ship container cable_car subway aircraft wheelchair scooter drone" speed="3.65" length="1.44" shape="1516.93,1161.91 1517.75,1160.73"/>
    </edge>
    <edge id=":10091468352_10" function="internal">
        <lane id=":10091468352_10_0" index="0" disallow="tram rail_urban rail rail_electric rail_fast ship container cable_car subway aircraft wheelchair scooter drone" speed="7.89" length="10.33" shape="1517.63,1157.86 1519.32,1155.25 1522.19,1153.78 1526.18,1153.54"/>
    </edge>
    <edge id=":10091468352_11" function="internal">
        <lane id=":10091468352_11_0" index="0" disallow="tram rail_urban rail rail_electric rail_fast ship container cable_car subway aircraft wheelchair scooter drone" speed="3.65" length="3.23" shape="1517.75,1160.73 1518.56,1160.34 1519.35,1160.75 1520.13,1161.96"/>
    </edge>
    <edge id=":10091468360_0" function="internal">
        <lane id=":10091468360_0_0" index="0" disallow="tram rail_urban rail rail_electric rail_fast ship container cable_car subway aircraft wheelchair scooter drone" speed="3.65" length="4.67" shape="1675.71,1291.40 1675.20,1292.75 1674.51,1293.32 1673.64,1293.11 1672.59,1292.12"/>
    </edge>
    <edge id=":10091493746_0" function="internal">
        <lane id=":10091493746_0_0" index="0" disallow="tram rail_urban rail rail_electric rail_fast ship container cable_car subway aircraft wheelchair scooter drone" speed="3.65" length="4.67" shape="1669.18,1155.15 1668.20,1156.20 1667.34,1156.47 1666.62,1155.95 1666.02,1154.63"/>
    </edge>
    <edge id=":10091493747_0" function="internal">
        <lane id=":10091493747_0_0" index="0" disallow="tram rail_urban rail rail_electric rail_fast ship container cable_car subway aircraft wheelchair scooter drone" speed="6.46" length="9.03" shape="1711.30,1145.14 1708.82,1145.25 1706.99,1146.12 1705.80,1147.77 1705.25,1150.20"/>
    </edge>
    <edge id=":10091493747_1" function="internal">
        <lane id=":10091493747_1_0" index="0" disallow="tram rail_urban rail rail_electric rail_fast ship container cable_car subway aircraft wheelchair scooter drone" speed="13.89" length="14.40" shape="1711.30,1145.14 1696.97,1143.71"/>
    </edge>
    <edge id=":10091493747_2" function="internal">
        <lane id=":10091493747_2_0" index="0" disallow="tram rail_urban rail rail_electric rail_fast ship container cable_car subway aircraft wheelchair scooter drone" speed="3.65" length="1.44" shape="1711.30,1145.14 1710.18,1144.23"/>
    </edge>
    <edge id=":10091493747_9" function="internal">
        <lane id=":10091493747_9_0" index="0" disallow="tram rail_urban rail rail_electric rail_fast ship container cable_car subway aircraft wheelchair scooter drone" speed="3.65" length="3.23" shape="1710.18,1144.23 1709.86,1143.39 1710.34,1142.64 1711.61,1141.96"/>
    </edge>
    <edge id=":10091493747_3" function="internal">
        <lane id=":10091493747_3_0" index="0" disallow="tram rail_urban rail rail_electric rail_fast ship container cable_car subway aircraft wheelchair scooter drone" speed="13.89" length="14.39" shape="1697.29,1140.53 1711.61,1141.96"/>
    </edge>
    <edge id=":10091493747_4" function="internal">
        <lane id=":10091493747_4_0" index="0" disallow="tram rail_urban rail rail_electric rail_fast ship container cable_car subway aircraft wheelchair scooter drone" speed="8.07" length="4.03" shape="1697.29,1140.53 1701.04,1141.46 1701.17,1141.56"/>
    </edge>
    <edge id=":10091493747_5" function="internal">
        <lane id=":10091493747_5_0" index="0" disallow="tram rail_urban rail rail_electric rail_fast ship container cable_car subway aircraft wheelchair scooter drone" speed="3.65" length="1.44" shape="1697.29,1140.53 1698.41,1141.44"/>
    </edge>
    <edge id=":10091493747_10" function="internal">
        <lane id=":10091493747_10_0" index="0" disallow="tram rail_urban rail rail_electric rail_fast ship container cable_car subway aircraft wheelchair scooter drone" speed="8.07" length="10.19" shape="1701.17,1141.56 1703.61,1143.38 1705.02,1146.29 1705.25,1150.20"/>
    </edge>
    <edge id=":10091493747_11" function="internal">
        <lane id=":10091493747_11_0" index="0" disallow="tram rail_urban rail rail_electric rail_fast ship container cable_car subway aircraft wheelchair scooter drone" speed="3.65" length="3.23" shape="1698.41,1141.44 1698.72,1142.28 1698.25,1143.03 1696.97,1143.71"/>
    </edge>
    <edge id=":10091493747_6" function="internal">
        <lane id=":10091493747_6_0" index="0" disallow="tram rail_urban rail rail_electric rail_fast ship container cable_car subway aircraft wheelchair scooter drone" speed="6.59" length="9.13" shape="1702.06,1149.94 1701.91,1147.42 1701.01,1145.55 1699.37,1144.31 1696.97,1143.71"/>
    </edge>
    <edge id=":10091493747_7" function="internal">
        <lane id=":10091493747_7_0" index="0" disallow="tram rail_urban rail rail_electric rail_fast ship container cable_car subway aircraft wheelchair scooter drone" speed="7.96" length="14.27" shape="1702.06,1149.94 1702.92,1146.11 1704.80,1143.51 1707.70,1142.12 1711.61,1141.96"/>
    </edge>
    <edge id=":10091493747_8" function="internal">
        <lane id=":10091493747_8_0" index="0" disallow="tram rail_urban rail rail_electric rail_fast ship container cable_car subway aircraft wheelchair scooter drone" speed="3.65" length="4.67" shape="1702.06,1149.94 1702.95,1148.81 1703.78,1148.47 1704.55,1148.94 1705.25,1150.20"/>
    </edge>
    <edge id=":10091493748_0" function="internal">
        <lane id=":10091493748_0_0" index="0" disallow="tram rail_urban rail rail_electric rail_fast ship container cable_car subway aircraft wheelchair scooter drone" speed="3.65" length="4.67" shape="1702.24,1188.30 1701.34,1189.43 1700.51,1189.77 1699.75,1189.30 1699.04,1188.04"/>
    </edge>
    <edge id=":10700172947_0" function="internal">
        <lane id=":10700172947_0_0" index="0" disallow="tram rail_urban rail rail_electric rail_fast ship container cable_car subway aircraft wheelchair scooter drone" speed="3.65" length="4.67" shape="1281.00,1218.40 1280.33,1219.67 1279.57,1220.15 1278.74,1219.83 1277.82,1218.72"/>
    </edge>
    <edge id=":10980102868_0" function="internal">
        <lane id=":10980102868_0_0" index="0" disallow="tram rail_urban rail rail_electric rail_fast ship container cable_car subway aircraft wheelchair scooter drone" speed="6.82" length="9.12" shape="1372.08,1106.28 1371.49,1103.95 1370.26,1102.28 1368.40,1101.25 1365.91,1100.89"/>
    </edge>
    <edge id=":10980102868_1" function="internal">
        <lane id=":10980102868_1_0" index="0" disallow="tram rail_urban rail rail_electric rail_fast ship container cable_car subway aircraft wheelchair scooter drone" speed="13.89" length="14.01" shape="1372.08,1106.28 1371.77,1102.70 1371.60,1099.29 1371.55,1095.88 1371.63,1092.29"/>
    </edge>
    <edge id=":10980102868_2" function="internal">
        <lane id=":10980102868_2_0" index="0" disallow="tram rail_urban rail rail_electric rail_fast ship container cable_car subway aircraft wheelchair scooter drone" speed="3.65" length="1.44" shape="1372.08,1106.28 1372.75,1105.01"/>
    </edge>
    <edge id=":10980102868_9" function="internal">
        <lane id=":10980102868_9_0" index="0" disallow="tram rail_urban rail rail_electric rail_fast ship container cable_car subway aircraft wheelchair scooter drone" speed="3.65" length="3.23" shape="1372.75,1105.01 1373.50,1104.53 1374.34,1104.84 1375.26,1105.96"/>
    </edge>
    <edge id=":10980102868_3" function="internal">
        <lane id=":10980102868_3_0" index="0" disallow="tram rail_urban rail rail_electric rail_fast ship container cable_car subway aircraft wheelchair scooter drone" speed="13.89" length="13.57" shape="1374.83,1092.40 1374.75,1095.93 1374.79,1099.19 1374.95,1102.44 1375.26,1105.96"/>
    </edge>
    <edge id=":10980102868_4" function="internal">
        <lane id=":10980102868_4_0" index="0" disallow="tram rail_urban rail rail_electric rail_fast ship container cable_car subway aircraft wheelchair scooter drone" speed="8.01" length="3.82" shape="1374.83,1092.40 1374.16,1096.16"/>
    </edge>
    <edge id=":10980102868_5" function="internal">
        <lane id=":10980102868_5_0" index="0" disallow="tram rail_urban rail rail_electric rail_fast ship container cable_car subway aircraft wheelchair scooter drone" speed="3.65" length="1.44" shape="1374.83,1092.40 1373.99,1093.57"/>
    </edge>
    <edge id=":10980102868_10" function="internal">
        <lane id=":10980102868_10_0" index="0" disallow="tram rail_urban rail rail_electric rail_fast ship container cable_car subway aircraft wheelchair scooter drone" speed="8.01" length="10.16" shape="1374.16,1096.16 1372.45,1098.83 1369.70,1100.40 1365.91,1100.89"/>
    </edge>
    <edge id=":10980102868_11" function="internal">
        <lane id=":10980102868_11_0" index="0" disallow="tram rail_urban rail rail_electric rail_fast ship container cable_car subway aircraft wheelchair scooter drone" speed="3.65" length="3.23" shape="1373.99,1093.57 1373.17,1093.94 1372.39,1093.51 1371.63,1092.29"/>
    </edge>
    <edge id=":10980102868_6" function="internal">
        <lane id=":10980102868_6_0" index="0" disallow="tram rail_urban rail rail_electric rail_fast ship container cable_car subway aircraft wheelchair scooter drone" speed="6.51" length="8.90" shape="1365.95,1097.69 1368.36,1097.38 1370.11,1096.38 1371.20,1094.68 1371.63,1092.29"/>
    </edge>
    <edge id=":10980102868_7" function="internal">
        <lane id=":10980102868_7_0" index="0" disallow="tram rail_urban rail rail_electric rail_fast ship container cable_car subway aircraft wheelchair scooter drone" speed="8.27" length="13.86" shape="1365.95,1097.69 1369.71,1098.25 1372.52,1099.82 1374.37,1102.39 1375.26,1105.96"/>
    </edge>
    <edge id=":10980102868_8" function="internal">
        <lane id=":10980102868_8_0" index="0" disallow="tram rail_urban rail rail_electric rail_fast ship container cable_car subway aircraft wheelchair scooter drone" speed="3.65" length="4.67" shape="1365.95,1097.69 1367.14,1098.50 1367.53,1099.31 1367.12,1100.10 1365.91,1100.89"/>
    </edge>
    <edge id=":10980116213_0" function="internal">
        <lane id=":10980116213_0_0" index="0" disallow="tram rail_urban rail rail_electric rail_fast ship container cable_car subway aircraft wheelchair scooter drone" speed="3.65" length="4.67" shape="1367.18,1260.08 1366.58,1261.39 1365.85,1261.91 1365.00,1261.64 1364.02,1260.58"/>
    </edge>
    <edge id=":10980123351_0" function="internal">
        <lane id=":10980123351_0_0" index="0" disallow="tram rail_urban rail rail_electric rail_fast ship container cable_car subway aircraft wheelchair scooter drone" speed="2.78" length="4.67" shape="1318.27,1327.04 1317.45,1328.23 1316.65,1328.62 1315.85,1328.21 1315.07,1327.00"/>
    </edge>
    <edge id=":11011603072_0" function="internal">
        <lane id=":11011603072_0_0" index="0" disallow="tram rail_urban rail rail_electric rail_fast ship container cable_car subway aircraft wheelchair scooter drone" speed="13.89" length="14.37" shape="1279.88,1542.29 1279.32,1538.70 1278.42,1535.29 1277.30,1531.92 1276.10,1528.46"/>
    </edge>
    <edge id=":11011603072_1" function="internal">
        <lane id=":11011603072_1_0" index="0" disallow="tram rail_urban rail rail_electric rail_fast ship container cable_car subway aircraft wheelchair scooter drone" speed="8.74" length="4.06" shape="1279.88,1542.29 1279.98,1538.23"/>
    </edge>
    <edge id=":11011603072_2" function="internal">
        <lane id=":11011603072_2_0" index="0" disallow="tram rail_urban rail rail_electric rail_fast ship container cable_car subway aircraft wheelchair scooter drone" speed="3.68" length="1.60" shape="1279.88,1542.29 1280.27,1540.86 1280.36,1540.77"/>
    </edge>
    <edge id=":11011603072_9" function="internal">