<?xml version="1.0" encoding="UTF-8"?>

<!-- generated on 2025-10-29 01:33:33.414151 by Eclipse SUMO randomTrips.py UNKNOWN
<configuration>
    <net-file value="hebbal.net.xml"/>
    <output-trip-file value="hebbal.trips.xml"/>
    <trip-attributes value="departLane=&quot;best&quot; departSpeed=&quot;max&quot;"/>
    <vehicle-class value="passenger"/>
    <fringe-factor value="10"/>
    <end value="1000.0"/>
    <period value="10.0"/>
</configuration>
-->

<routes xmlns:xsi="http://www.w3.org/2001/XMLSchema-instance" xsi:noNamespaceSchemaLocation="http://sumo.dlr.de/xsd/routes_file.xsd">
    <vType id="passenger" vClass="passenger"/>
    <trip id="0" depart="0.00" from="-667751249#4" to="-325929761" departLane="best" departSpeed="max" type="passenger"/>
    <trip id="1" depart="10.00" from="325929761" to="238191046#2" departLane="best" departSpeed="max" type="passenger"/>
    <trip id="2" depart="20.00" from="698555589" to="-1227943976" departLane="best" departSpeed="max" type="passenger"/>
    <trip id="3" depart="30.00" from="-86637077#20" to="-1156567347" departLane="best" departSpeed="max" type="passenger"/>
    <trip id="4" depart="40.00" from="-238191043#1" to="1156567346#3" departLane="best" departSpeed="max" type="passenger"/>
    <trip id="5" depart="50.00" from="-1102785250" to="-238191047" departLane="best" departSpeed="max" type="passenger"/>
    <trip id="6" depart="60.00" from="238191035#0" to="1227941252" departLane="best" departSpeed="max" type="passenger"/>
    <trip id="7" depart="70.00" from="-238191043#1" to="1316918341" departLane="best" departSpeed="max" type="passenger"/>
    <trip id="8" depart="80.00" from="791743474" to="-791724437" departLane="best" departSpeed="max" type="passenger"/>
    <trip id="9" depart="90.00" from="-114817858#5" to="-1228802819" departLane="best" departSpeed="max" type="passenger"/>
    <trip id="10" depart="100.00" from="1212962054" to="86637077#6" departLane="best" departSpeed="max" type="passenger"/>
    <trip id="11" depart="110.00" from="-791724420" to="1227941252" departLane="best" departSpeed="max" type="passenger"/>
    <trip id="12" depart="120.00" from="238203453#0" to="-1182403053" departLane="best" departSpeed="max" type="passenger"/>
    <trip id="13" depart="130.00" from="-238203453#2" to="-760681877#1" departLane="best" departSpeed="max" type="passenger"/>
    <trip id="14" depart="140.00" from="-114817850#2" to="-325929762#4" departLane="best" departSpeed="max" type="passenger"/>
    <trip id="15" depart="150.00" from="-1156567346#3" to="-726510902#1" departLane="best" departSpeed="max" type="passenger"/>
    <trip id="16" depart="160.00" from="-782113567" to="-238203453#0" departLane="best" departSpeed="max" type="passenger"/>
    <trip id="17" depart="170.00" from="-667751244" to="791724440" departLane="best" departSpeed="max" type="passenger"/>
    <trip id="18" depart="180.00" from="-1316921284#2" to="-995100104" departLane="best" departSpeed="max" type="passenger"/>
    <trip id="19" depart="190.00" from="995100104" to="238191030" departLane="best" departSpeed="max" type="passenger"/>
    <trip id="20" depart="200.00" from="1227941254" to="238203453#2" departLane="best" departSpeed="max" type="passenger"/>
    <trip id="21" depart="210.00" from="-238203453#2" to="-1156567347" departLane="best" departSpeed="max" type="passenger"/>
    <trip id="22" depart="220.00" from="-238191043#1" to="791743473" departLane="best" departSpeed="max" type="passenger"/>
    <trip id="23" depart="230.00" from="667001220" to="-791724419" departLane="best" departSpeed="max" type="passenger"/>
    <trip id="24" depart="240.00" from="768280103#6" to="1102788941" departLane="best" departSpeed="max" type="passenger"/>
    <trip id="25" depart="250.00" from="-667751244" to="-325929771" departLane="best" departSpeed="max" type="passenger"/>
    <trip id="26" depart="260.00" from="1227941254" to="-559334472" departLane="best" departSpeed="max" type="passenger"/>
    <trip id="27" depart="270.00" from="-791743473" to="-325929761" departLane="best" departSpeed="max" type="passenger"/>
    <trip id="28" depart="280.00" from="995100106#0" to="1156567348" departLane="best" departSpeed="max" type="passenger"/>
    <trip id="29" depart="290.00" from="-1102788941" to="-995100104" departLane="best" departSpeed="max" type="passenger"/>
    <trip id="30" depart="300.00" from="-1079474150#1" to="325929773#0" departLane="best" departSpeed="max" type="passenger"/>
    <trip id="31" depart="310.00" from="-667751244" to="238191030" departLane="best" departSpeed="max" type="passenger"/>
    <trip id="32" depart="320.00" from="-1156567348" to="1102785256" departLane="best" departSpeed="max" type="passenger"/>
    <trip id="33" depart="330.00" from="-995100108" to="86637077#13" departLane="best" departSpeed="max" type="passenger"/>
    <trip id="34" depart="340.00" from="667001220" to="-559334472" departLane="best" departSpeed="max" type="passenger"/>
    <trip id="35" depart="350.00" from="1182402067" to="-238191046#0" departLane="best" departSpeed="max" type="passenger"/>
    <trip id="36" depart="360.00" from="36987764#0" to="1185437814" departLane="best" departSpeed="max" type="passenger"/>
    <trip id="37" depart="370.00" from="-1079474149#0" to="-791724422" departLane="best" departSpeed="max" type="passenger"/>
    <trip id="38" depart="380.00" from="-1102785248" to="791724440" departLane="best" departSpeed="max" type="passenger"/>
    <trip id="39" depart="390.00" from="667001220" to="791743473" departLane="best" departSpeed="max" type="passenger"/>
    <trip id="40" depart="400.00" from="-114817850#2" to="114817858#4" departLane="best" departSpeed="max" type="passenger"/>
    <trip id="41" depart="410.00" from="325929773#1" to="-238191035#0" departLane="best" departSpeed="max" type="passenger"/>
    <trip id="42" depart="420.00" from="114817858#4" to="1227941252" departLane="best" departSpeed="max" type="passenger"/>
    <trip id="43" depart="430.00" from="-86637077#20" to="-238203453#0" departLane="best" departSpeed="max" type="passenger"/>
    <trip id="44" depart="440.00" from="-238191032" to="-782292584#1" departLane="best" departSpeed="max" type="passenger"/>
    <trip id="45" depart="450.00" from="995100104" to="238191032" departLane="best" departSpeed="max" type="passenger"/>
    <trip id="46" depart="460.00" from="-1156567348" to="-325929761" departLane="best" departSpeed="max" type="passenger"/>
    <trip id="47" depart="470.00" from="-238203453#2" to="-325929761" departLane="best" departSpeed="max" type="passenger"/>
    <trip id="48" depart="480.00" from="559334472" to="-1227941254" departLane="best" departSpeed="max" type="passenger"/>
    <trip id="49" depart="490.00" from="-238203453#2" to="238191043#1" departLane="best" departSpeed="max" type="passenger"/>
    <trip id="50" depart="500.00" from="-238191043#1" to="-238191035#0" departLane="best" departSpeed="max" type="passenger"/>
    <trip id="51" depart="510.00" from="791724436" to="1227941256" departLane="best" departSpeed="max" type="passenger"/>
    <trip id="52" depart="520.00" from="-1156567346#0" to="1102785250" departLane="best" departSpeed="max" type="passenger"/>
    <trip id="53" depart="530.00" from="-86637077#20" to="1102788941" departLane="best" departSpeed="max" type="passenger"/>
    <trip id="54" depart="540.00" from="86637077#6" to="-1228802819" departLane="best" departSpeed="max" type="passenger"/>
    <trip id="55" depart="550.00" from="-791743473" to="-791724438#1" departLane="best" departSpeed="max" type="passenger"/>
    <trip id="56" depart="560.00" from="559334472" to="-325929772#1" departLane="best" departSpeed="max" type="passenger"/>
    <trip id="57" depart="570.00" from="-238191031#1" to="1102788940" departLane="best" departSpeed="max" type="passenger"/>
    <trip id="58" depart="580.00" from="-86637077#20" to="-726510902#1" departLane="best" departSpeed="max" type="passenger"/>
    <trip id="59" depart="590.00" from="-325929772#2" to="791724420" departLane="best" departSpeed="max" type="passenger"/>
    <trip id="60" depart="600.00" from="1212962055" to="-1212962054" departLane="best" departSpeed="max" type="passenger"/>
    <trip id="61" depart="610.00" from="791743475" to="791724438#1" departLane="best" departSpeed="max" type="passenger"/>
    <trip id="62" depart="620.00" from="458681911#0" to="-238191042" departLane="best" departSpeed="max" type="passenger"/>
    <trip id="63" depart="630.00" from="1156567347" to="-238203453#0" departLane="best" departSpeed="max" type="passenger"/>
    <trip id="64" depart="640.00" from="-791743473" to="-1212962055" departLane="best" departSpeed="max" type="passenger"/>
    <trip id="65" depart="650.00" from="-791724420" to="995100106#1" departLane="best" departSpeed="max" type="passenger"/>
    <trip id="66" depart="660.00" from="-995100108" to="1102785250" departLane="best" departSpeed="max" type="passenger"/>
    <trip id="67" depart="670.00" from="791743474" to="995100108" departLane="best" departSpeed="max" type="passenger"/>
    <trip id="68" depart="680.00" from="1227941254" to="325929772#1" departLane="best" departSpeed="max" type="passenger"/>
    <trip id="69" depart="690.00" from="1182402067" to="726510902#1" departLane="best" departSpeed="max" type="passenger"/>
    <trip id="70" depart="700.00" from="-1227941256" to="86637077#20" departLane="best" departSpeed="max" type="passenger"/>
    <trip id="71" depart="710.00" from="-114817850#2" to="-238191046#0" departLane="best" departSpeed="max" type="passenger"/>
    <trip id="72" depart="720.00" from="1314623507" to="238191043#1" departLane="best" departSpeed="max" type="passenger"/>
    <trip id="73" depart="730.00" from="-238191035#1" to="325929767#3" departLane="best" departSpeed="max" type="passenger"/>
    <trip id="74" depart="740.00" from="-747958866#2" to="376530259#2" departLane="best" departSpeed="max" type="passenger"/>
    <trip id="75" depart="750.00" from="-1102788941" to="1102788941" departLane="best" departSpeed="max" type="passenger"/>
    <trip id="76" depart="760.00" from="995100107#0" to="995100108" departLane="best" departSpeed="max" type="passenger"/>
    <trip id="77" depart="770.00" from="-1111845888" to="-238203453#0" departLane="best" departSpeed="max" type="passenger"/>
    <trip id="78" depart="780.00" from="-667751244" to="791724440" departLane="best" departSpeed="max" type="passenger"/>
    <trip id="79" depart="790.00" from="-782113567" to="-238191041" departLane="best" departSpeed="max" type="passenger"/>
    <trip id="80" depart="800.00" from="238191035#0" to="-114817850#0" departLane="best" departSpeed="max" type="passenger"/>
    <trip id="81" depart="810.00" from="238191037" to="791724501" departLane="best" departSpeed="max" type="passenger"/>
    <trip id="82" depart="820.00" from="-1156567346#3" to="1227941252" departLane="best" departSpeed="max" type="passenger"/>
    <trip id="83" depart="830.00" from="238204954#1" to="-238191047" departLane="best" departSpeed="max" type="passenger"/>
    <trip id="84" depart="840.00" from="458681911#0" to="-1228802819" departLane="best" departSpeed="max" type="passenger"/>
    <trip id="85" depart="850.00" from="-86637077#20" to="-726510902#0" departLane="best" departSpeed="max" type="passenger"/>
    <trip id="86" depart="860.00" from="325929761" to="1227941252" departLane="best" departSpeed="max" type="passenger"/>
    <trip id="87" depart="870.00" from="-86637077#20" to="-114817850#1" departLane="best" departSpeed="max" type="passenger"/>
    <trip id="88" depart="880.00" from="-1227941256" to="-238191035#0" departLane="best" departSpeed="max" type="passenger"/>
    <trip id="89" depart="890.00" from="727393539#0" to="-238203453#0" departLane="best" departSpeed="max" type="passenger"/>
    <trip id="90" depart="900.00" from="-325929772#2" to="-1228802819" departLane="best" departSpeed="max" type="passenger"/>
    <trip id="91" depart="910.00" from="36987764#0" to="760685446" departLane="best" departSpeed="max" type="passenger"/>
    <trip id="92" depart="920.00" from="-1227941256" to="791724440" departLane="best" departSpeed="max" type="passenger"/>
    <trip id="93" depart="930.00" from="661912171#0" to="995100106#1" departLane="best" departSpeed="max" type="passenger"/>
    <trip id="94" depart="940.00" from="-238191046#3" to="667751249#1" departLane="best" departSpeed="max" type="passenger"/>
    <trip id="95" depart="950.00" from="-1102785248" to="-238191046#6" departLane="best" departSpeed="max" type="passenger"/>
    <trip id="96" depart="960.00" from="791743475" to="-727393538" departLane="best" departSpeed="max" type="passenger"/>
    <trip id="97" depart="970.00" from="791724437" to="-1316918341" departLane="best" departSpeed="max" type="passenger"/>
    <trip id="98" depart="980.00" from="791743475" to="-238191046#0" departLane="best" departSpeed="max" type="passenger"/>
    <trip id="99" depart="990.00" from="791743475" to="-559334472" departLane="best" departSpeed="max" type="passenger"/>
</routes>
