<?xml version="1.0" encoding="UTF-8"?>

<!-- generated on 2025-10-29T01:33:33.659782+05:30 by Eclipse SUMO duarouter v1_24_0+1454-51d0da9119e
<duarouterConfiguration xmlns:xsi="http://www.w3.org/2001/XMLSchema-instance" xsi:noNamespaceSchemaLocation="http://sumo.dlr.de/xsd/duarouterConfiguration.xsd">

    <input>
        <net-file value="hebbal.net.xml"/>
        <route-files value="hebbal.trips.xml"/>
    </input>

    <output>
        <output-file value="hebbal.rou.xml"/>
    </output>

    <report>
        <no-warnings value="true"/>
        <ignore-errors value="true"/>
    </report>

</duarouterConfiguration>
-->

<routes xmlns:xsi="http://www.w3.org/2001/XMLSchema-instance" xsi:noNamespaceSchemaLocation="http://sumo.dlr.de/xsd/routes_file.xsd">
    <vType id="passenger" vClass="passenger"/>
    <vehicle id="0" type="passenger" depart="0.00" departLane="best" departSpeed="max">
        <route edges="-667751249#4 -667751249#2 -667751249#1 -667751249#0 114817858#3 114817858#4 114817858#5 114817858#6 114817858#7 -667001219#3 -667001219#1 -325929761"/>
    </vehicle>
    <vehicle id="1" type="passenger" depart="10.00" departLane="best" departSpeed="max">
        <route edges="325929761 667001219#0 667001219#3 -727393539#2 -727393539#1 -727393539#0 86637077#10 86637077#11 86637077#13 86637077#15 -238191046#6 -238191046#5 -238191046#4 -238191046#3 -238191046#2 -238191046#0 -782113557 238191046#2"/>
    </vehicle>
    <vehicle id="2" type="passenger" depart="20.00" departLane="best" departSpeed="max">
        <route edges="698555589 -114817850#1 -114817850#0 114817858#5 114817858#6 114817858#7 -667001219#3 791724436 -1227943976"/>
    </vehicle>
    <vehicle id="3" type="passenger" depart="30.00" departLane="best" departSpeed="max">
        <route edges="-86637077#20 -86637077#18 -86637077#17 -86637077#15 -86637077#13 -86637077#11 -86637077#10 727393539#0 727393539#1 727393539#2 114817858#8 -1156567347"/>
    </vehicle>
    <vehicle id="4" type="passenger" depart="40.00" departLane="best" departSpeed="max">
        <route edges="-238191043#1 -238191043#0 -86637077#17 -86637077#15 -86637077#13 -86637077#11 -86637077#10 727393539#0 727393539#1 727393539#2 114817858#8 1156567346#0 1156567346#1 1156567346#2 1156567346#3"/>
    </vehicle>
    <vehicle id="5" type="passenger" depart="50.00" departLane="best" departSpeed="max">
        <route edges="-1102785250 -114817858#3 -726510902#1 -726510902#0 -325929762#2 -325929762#1 -325929762#0 86637077#4 86637077#5 86637077#6 86637077#8 86637077#10 86637077#11 86637077#13 86637077#15 -238191046#6 -238191046#5 -238191046#4 -238191046#3 -238191047"/>
    </vehicle>
    <vehicle id="6" type="passenger" depart="60.00" departLane="best" departSpeed="max">
        <route edges="238191035#0 238191033#0 238191033#1 325929762#0 325929762#1 1227941252"/>
    </vehicle>
    <vehicle id="7" type="passenger" depart="70.00" departLane="best" departSpeed="max">
        <route edges="-238191043#1 -238191043#0 -86637077#17 -86637077#15 -86637077#13 -86637077#11 -86637077#10 -86637077#8 -86637077#6 -86637077#5 667751250 -114817858#5 114817850#0 114817850#1 -791724438#1 1316918341"/>
    </vehicle>
    <vehicle id="8" type="passenger" depart="80.00" departLane="best" departSpeed="max">
        <route edges="791743474 667001223 -1102785255 238191031#1 727393539#0 727393539#1 727393539#2 -667001219#3 -791724437"/>
    </vehicle>
    <vehicle id="9" type="passenger" depart="90.00" departLane="best" departSpeed="max">
        <route edges="-114817858#5 -114817858#4 -114817858#3 -726510902#1 -726510902#0 -325929762#2 -325929762#1 -325929762#0 -238191033#1 -1228802819"/>
    </vehicle>
    <vehicle id="10" type="passenger" depart="100.00" departLane="best" departSpeed="max">
        <route edges="1212962054 1314875625#1 -325929773#4 -325929773#2 -325929773#1 -325929773#0 86637077#4 86637077#5 86637077#6"/>
    </vehicle>
    <vehicle id="11" type="passenger" depart="110.00" departLane="best" departSpeed="max">
        <route edges="-791724420 -727393539#0 -86637077#8 -86637077#6 -86637077#5 -86637077#4 325929762#0 325929762#1 1227941252"/>
    </vehicle>
    <vehicle id="12" type="passenger" depart="120.00" departLane="best" departSpeed="max">
        <route edges="238203453#0 -791724500 770628037#0 770628037#1 -86637077#18 -86637077#17 -86637077#15 -86637077#13 -86637077#11 -86637077#10 -86637077#8 -86637077#6 -86637077#5 -86637077#4 325929773#0 325929773#1 325929773#2 -1182403053"/>
    </vehicle>
    <vehicle id="13" type="passenger" depart="130.00" departLane="best" departSpeed="max">
        <route edges="-238203453#2 791724501 770628037#0 770628037#1 -86637077#18 -86637077#17 -86637077#15 -86637077#13 -86637077#11 -86637077#10 -86637077#8 -86637077#6 -86637077#5 -86637077#4 -86637077#2 -86637077#0 -1111845888 -760681877#1"/>
    </vehicle>
    <vehicle id="14" type="passenger" depart="140.00" departLane="best" departSpeed="max">
        <route edges="-114817850#2 -114817850#1 -114817850#0 -114817858#4 -114817858#3 -726510902#1 -726510902#0 325929762#3 325929762#4 -325929762#4"/>
    </vehicle>
    <vehicle id="15" type="passenger" depart="150.00" departLane="best" departSpeed="max">
        <route edges="-1156567346#3 -1156567346#2 -1156567346#1 -1156567346#0 -114817858#8 -114817858#7 -114817858#6 -114817858#5 -114817858#4 -114817858#3 -726510902#1"/>
    </vehicle>
    <vehicle id="16" type="passenger" depart="160.00" departLane="best" departSpeed="max">
        <route edges="-782113567 -770628037#1 -770628037#0 770628027#2 -238203453#0"/>
    </vehicle>
    <vehicle id="17" type="passenger" depart="170.00" departLane="best" departSpeed="max">
        <route edges="-667751244 -1156567346#1 -1156567346#0 -114817858#8 -727393539#2 -727393539#1 -727393539#0 -86637077#8 -86637077#6 791724440"/>
    </vehicle>
    <vehicle id="18" type="passenger" depart="180.00" departLane="best" departSpeed="max">
        <route edges="-1316921284#2 238191036#0 238191036#1 -86637077#6 -86637077#5 -86637077#4 325929762#0 325929762#1 325929762#2 325929762#3 -995100104"/>
    </vehicle>
    <vehicle id="19" type="passenger" depart="190.00" departLane="best" departSpeed="max">
        <route edges="995100104 -325929762#3 -325929762#2 -325929762#1 -325929762#0 86637077#4 86637077#5 86637077#6 86637077#8 86637077#10 86637077#11 86637077#13 86637077#15 -238191046#6 238191030"/>
    </vehicle>
    <vehicle id="20" type="passenger" depart="200.00" departLane="best" departSpeed="max">
        <route edges="1227941254 86637077#15 86637077#17 86637077#18 -770628037#1 -770628037#0 -791724501 238203453#2"/>
    </vehicle>
    <vehicle id="21" type="passenger" depart="210.00" departLane="best" departSpeed="max">
        <route edges="-238203453#2 791724501 770628037#0 770628037#1 -86637077#18 -86637077#17 -86637077#15 -86637077#13 -86637077#11 -86637077#10 727393539#0 727393539#1 727393539#2 114817858#8 -1156567347"/>
    </vehicle>
    <vehicle id="22" type="passenger" depart="220.00" departLane="best" departSpeed="max">
        <route edges="-238191043#1 -238191043#0 -86637077#17 -86637077#15 -86637077#13 -86637077#11 -86637077#10 727393539#0 727393539#1 727393539#2 -667001219#3 791724436 791743473"/>
    </vehicle>
    <vehicle id="23" type="passenger" depart="230.00" departLane="best" departSpeed="max">
        <route edges="667001220 -791724436 667001219#3 -727393539#2 -727393539#1 -727393539#0 86637077#10 86637077#11 86637077#13 -791724419"/>
    </vehicle>
    <vehicle id="24" type="passenger" depart="240.00" departLane="best" departSpeed="max">
        <route edges="768280103#6 -768280103#1 163095719#1 1278548485#0 1111845888 86637077#0 86637077#2 86637077#4 86637077#5 86637077#6 86637077#8 727393539#0 727393539#1 727393539#2 114817858#8 1156567346#0 1156567346#1 1156567346#2 1102788941"/>
    </vehicle>
    <vehicle id="25" type="passenger" depart="250.00" departLane="best" departSpeed="max">
        <route edges="-667751244 -1156567346#1 -325929771"/>
    </vehicle>
    <vehicle id="26" type="passenger" depart="260.00" departLane="best" departSpeed="max">
        <route edges="1227941254 -86637077#13 -559334472"/>
    </vehicle>
    <vehicle id="27" type="passenger" depart="270.00" departLane="best" departSpeed="max">
        <route edges="-791743473 -791724436 -667001219#1 -325929761"/>
    </vehicle>
    <vehicle id="28" type="passenger" depart="280.00" departLane="best" departSpeed="max">
        <route edges="995100106#0 1102785251 114817858#1 114817858#3 114817858#4 114817858#5 114817858#6 114817858#7 114817858#8 1156567348"/>
    </vehicle>
    <vehicle id="29" type="passenger" depart="290.00" departLane="best" departSpeed="max">
        <route edges="-1102788941 -1156567346#2 -1156567346#1 -1156567346#0 -114817858#8 -114817858#7 -114817858#6 -114817858#5 -114817858#4 -114817858#3 -726510902#1 -726510902#0 325929762#3 -995100104"/>
    </vehicle>
    <vehicle id="30" type="passenger" depart="300.00" departLane="best" departSpeed="max">
        <route edges="-1079474150#1 -1079474150#0 -1079474149#0 -238191040#1 -86637077#17 -86637077#15 -86637077#13 -86637077#11 -86637077#10 -86637077#8 -86637077#6 -86637077#5 -86637077#4 325929773#0"/>
    </vehicle>
    <vehicle id="31" type="passenger" depart="310.00" departLane="best" departSpeed="max">
        <route edges="-667751244 -1156567346#1 -1156567346#0 -114817858#8 -727393539#2 -727393539#1 -727393539#0 86637077#10 86637077#11 86637077#13 86637077#15 -238191046#6 238191030"/>
    </vehicle>
    <vehicle id="32" type="passenger" depart="320.00" departLane="best" departSpeed="max">
        <route edges="-1156567348 -114817858#8 -727393539#2 -727393539#1 -727393539#0 86637077#10 86637077#11 1102785256"/>
    </vehicle>
    <vehicle id="33" type="passenger" depart="330.00" departLane="best" departSpeed="max">
        <route edges="-995100108 -667751249#2 -667751249#1 -667751249#0 -726510902#1 -726510902#0 -325929762#2 -325929762#1 -325929762#0 86637077#4 86637077#5 86637077#6 86637077#8 86637077#10 86637077#11 86637077#13"/>
    </vehicle>
    <vehicle id="34" type="passenger" depart="340.00" departLane="best" departSpeed="max">
        <route edges="667001220 -791724436 667001219#3 -727393539#2 -727393539#1 -727393539#0 86637077#10 86637077#11 -559334472"/>
    </vehicle>
    <vehicle id="35" type="passenger" depart="350.00" departLane="best" departSpeed="max">
        <route edges="1182402067 -325929762#1 -325929762#0 86637077#4 86637077#5 86637077#6 86637077#8 86637077#10 86637077#11 86637077#13 86637077#15 -238191046#6 -238191046#5 -238191046#4 -238191046#3 -238191046#2 -238191046#0"/>
    </vehicle>
    <vehicle id="36" type="passenger" depart="360.00" departLane="best" departSpeed="max">
        <route edges="36987764#0 36987764#0-AddedOffRampEdge 36987764#1 1278555481#0 1278555481#1 747958866#0 1185437813#0 1185437814"/>
    </vehicle>
    <vehicle id="37" type="passenger" depart="370.00" departLane="best" departSpeed="max">
        <route edges="-1079474149#0 -238191040#1 -86637077#17 -86637077#15 -86637077#13 -86637077#11 -86637077#10 727393539#0 727393539#1 727393539#2 -667001219#3 -667001219#1 -791724422"/>
    </vehicle>
    <vehicle id="38" type="passenger" depart="380.00" departLane="best" departSpeed="max">
        <route edges="-1102785248 -114817850#0 114817858#5 -667751250 86637077#5 791724440"/>
    </vehicle>
    <vehicle id="39" type="passenger" depart="390.00" departLane="best" departSpeed="max">
        <route edges="667001220 791743473"/>
    </vehicle>
    <vehicle id="40" type="passenger" depart="400.00" departLane="best" departSpeed="max">
        <route edges="-114817850#2 -698555589 -667751249#2 -667751249#1 -667751249#0 114817858#3 114817858#4"/>
    </vehicle>
    <vehicle id="41" type="passenger" depart="410.00" departLane="best" departSpeed="max">
        <route edges="325929773#1 -325929773#1 -325929773#0 -238191033#1 -238191033#0 -238191035#0"/>
    </vehicle>
    <vehicle id="42" type="passenger" depart="420.00" departLane="best" departSpeed="max">
        <route edges="114817858#4 -114817858#4 -114817858#3 -726510902#1 -726510902#0 -325929762#2 1227941252"/>
    </vehicle>
    <vehicle id="43" type="passenger" depart="430.00" departLane="best" departSpeed="max">
        <route edges="-86637077#20 -770628037#1 -770628037#0 770628027#2 -238203453#0"/>
    </vehicle>
    <vehicle id="44" type="passenger" depart="440.00" departLane="best" departSpeed="max">
        <route edges="-238191032 -86637077#10 -86637077#8 -86637077#6 -86637077#5 -86637077#4 -86637077#2 -86637077#0 1314875625#0 1314875625#1 36987774#0 36987774#1 238204954#0 238204954#1 -782292584#1"/>
    </vehicle>
    <vehicle id="45" type="passenger" depart="450.00" departLane="best" departSpeed="max">
        <route edges="995100104 -325929762#3 -325929762#2 -325929762#1 -325929762#0 86637077#4 86637077#5 86637077#6 86637077#8 86637077#10 238191032"/>
    </vehicle>
    <vehicle id="46" type="passenger" depart="460.00" departLane="best" departSpeed="max">
        <route edges="-1156567348 1156567346#0 -325929771 -325929761"/>
    </vehicle>
    <vehicle id="47" type="passenger" depart="470.00" departLane="best" departSpeed="max">
        <route edges="-238203453#2 791724501 770628037#0 770628037#1 -86637077#18 -86637077#17 -86637077#15 -86637077#13 -86637077#11 -86637077#10 727393539#0 727393539#1 727393539#2 -667001219#3 -667001219#1 -325929761"/>
    </vehicle>
    <vehicle id="48" type="passenger" depart="480.00" departLane="best" departSpeed="max">
        <route edges="559334472 86637077#13 -1227941254"/>
    </vehicle>
    <vehicle id="49" type="passenger" depart="490.00" departLane="best" departSpeed="max">
        <route edges="-238203453#2 791724501 770628037#0 770628037#1 -86637077#18 -238191040#0 238191043#1"/>
    </vehicle>
    <vehicle id="50" type="passenger" depart="500.00" departLane="best" departSpeed="max">
        <route edges="-238191043#1 -238191043#0 -86637077#17 -86637077#15 -86637077#13 -86637077#11 -86637077#10 -86637077#8 -86637077#6 -86637077#5 -86637077#4 -238191033#1 -238191033#0 -238191035#0"/>
    </vehicle>
    <vehicle id="51" type="passenger" depart="510.00" departLane="best" departSpeed="max">
        <route edges="791724436 -791724436 -667001219#1 -791724422 1227941256"/>
    </vehicle>
    <vehicle id="52" type="passenger" depart="520.00" departLane="best" departSpeed="max">
        <route edges="-1156567346#0 -114817858#8 -114817858#7 -114817858#6 -114817858#5 -114817858#4 1102785250"/>
    </vehicle>
    <vehicle id="53" type="passenger" depart="530.00" departLane="best" departSpeed="max">
        <route edges="-86637077#20 -86637077#18 -86637077#17 -86637077#15 -86637077#13 -86637077#11 -86637077#10 727393539#0 727393539#1 727393539#2 114817858#8 1156567346#0 1156567346#1 1156567346#2 1102788941"/>
    </vehicle>
    <vehicle id="54" type="passenger" depart="540.00" departLane="best" departSpeed="max">
        <route edges="86637077#6 -86637077#6 -86637077#5 -86637077#4 -238191033#1 -1228802819"/>
    </vehicle>
    <vehicle id="55" type="passenger" depart="550.00" departLane="best" departSpeed="max">
        <route edges="-791743473 -791724436 667001219#3 -114817858#7 -114817858#6 -114817858#5 114817850#0 114817850#1 -791724438#1"/>
    </vehicle>
    <vehicle id="56" type="passenger" depart="560.00" departLane="best" departSpeed="max">
        <route edges="559334472 -86637077#11 -86637077#10 -86637077#8 -325929772#2 -325929772#1"/>
    </vehicle>
    <vehicle id="57" type="passenger" depart="570.00" departLane="best" departSpeed="max">
        <route edges="-238191031#1 238191031#1 727393539#0 727393539#1 727393539#2 114817858#8 1156567346#0 1156567346#1 1102788940"/>
    </vehicle>
    <vehicle id="58" type="passenger" depart="580.00" departLane="best" departSpeed="max">
        <route edges="-86637077#20 -86637077#18 -86637077#17 -86637077#15 -86637077#13 -86637077#11 -86637077#10 -86637077#8 -86637077#6 -86637077#5 667751250 -114817858#5 -114817858#4 -114817858#3 -726510902#1"/>
    </vehicle>
    <vehicle id="59" type="passenger" depart="590.00" departLane="best" departSpeed="max">
        <route edges="-325929772#2 -791724420 791724420"/>
    </vehicle>
    <vehicle id="60" type="passenger" depart="600.00" departLane="best" departSpeed="max">
        <route edges="1212962055 661912171#1 -86637077#0 1314875625#0 -1212962054"/>
    </vehicle>
    <vehicle id="61" type="passenger" depart="610.00" departLane="best" departSpeed="max">
        <route edges="791743475 -1102785255 238191031#1 727393539#0 727393539#1 727393539#2 -114817858#7 -114817858#6 -114817858#5 114817850#0 114817850#1 -791724438#1 791724438#1"/>
    </vehicle>
    <vehicle id="62" type="passenger" depart="620.00" departLane="best" departSpeed="max">
        <route edges="458681911#0 1111845888 86637077#0 86637077#2 86637077#4 86637077#5 86637077#6 86637077#8 86637077#10 86637077#11 86637077#13 86637077#15 -238191046#6 -238191046#5 -238191046#4 -238191046#3 -238191046#2 -238191042"/>
    </vehicle>
    <vehicle id="63" type="passenger" depart="630.00" departLane="best" departSpeed="max">
        <route edges="1156567347 -114817858#8 -727393539#2 -727393539#1 -727393539#0 86637077#10 86637077#11 86637077#13 86637077#15 86637077#17 86637077#18 -770628037#1 -770628037#0 770628027#2 -238203453#0"/>
    </vehicle>
    <vehicle id="64" type="passenger" depart="640.00" departLane="best" departSpeed="max">
        <route edges="-791743473 -791724436 667001219#3 -727393539#2 -727393539#1 -727393539#0 -86637077#8 -86637077#6 -86637077#5 -86637077#4 -86637077#2 -661912171#1 -1212962055"/>
    </vehicle>
    <vehicle id="65" type="passenger" depart="650.00" departLane="best" departSpeed="max">
        <route edges="-791724420 727393539#1 727393539#2 -114817858#7 -114817858#6 -114817858#5 -114817858#4 -114817858#3 -114817858#1 -1102785251 995100106#1"/>
    </vehicle>
    <vehicle id="66" type="passenger" depart="660.00" departLane="best" departSpeed="max">
        <route edges="-995100108 -667751249#2 -667751249#1 -667751249#0 114817858#3 1102785250"/>
    </vehicle>
    <vehicle id="67" type="passenger" depart="670.00" departLane="best" departSpeed="max">
        <route edges="791743474 238191037 238191036#0 238191036#1 -86637077#6 -86637077#5 -86637077#4 325929762#0 325929762#1 325929762#2 726510902#0 726510902#1 667751249#0 667751249#1 667751249#2 995100108"/>
    </vehicle>
    <vehicle id="68" type="passenger" depart="680.00" departLane="best" departSpeed="max">
        <route edges="1227941254 -86637077#13 -86637077#11 -86637077#10 727393539#0 727393539#1 -791724441 325929772#1"/>
    </vehicle>
    <vehicle id="69" type="passenger" depart="690.00" departLane="best" departSpeed="max">
        <route edges="1182402067 325929762#2 726510902#0 726510902#1"/>
    </vehicle>
    <vehicle id="70" type="passenger" depart="700.00" departLane="best" departSpeed="max">
        <route edges="-1227941256 -1156567346#0 -114817858#8 -727393539#2 -727393539#1 -727393539#0 86637077#10 86637077#11 86637077#13 86637077#15 86637077#17 86637077#18 86637077#20"/>
    </vehicle>
    <vehicle id="71" type="passenger" depart="710.00" departLane="best" departSpeed="max">
        <route edges="-114817850#2 -114817850#1 -114817850#0 114817858#5 -667751250 86637077#5 86637077#6 86637077#8 86637077#10 86637077#11 86637077#13 86637077#15 -238191046#6 -238191046#5 -238191046#4 -238191046#3 -238191046#2 -238191046#0"/>
    </vehicle>
    <vehicle id="72" type="passenger" depart="720.00" departLane="best" departSpeed="max">
        <route edges="1314623507 86637077#6 86637077#8 86637077#10 86637077#11 86637077#13 86637077#15 86637077#17 -238191040#0 238191043#1"/>
    </vehicle>
    <vehicle id="73" type="passenger" depart="730.00" departLane="best" departSpeed="max">
        <route edges="-238191035#1 238191033#0 238191033#1 86637077#4 86637077#5 86637077#6 86637077#8 86637077#10 86637077#11 86637077#13 86637077#15 86637077#17 238191040#1 325929767#3"/>
    </vehicle>
    <vehicle id="74" type="passenger" depart="740.00" departLane="best" departSpeed="max">
        <route edges="-747958866#2 -747958866#0 1073384218#2 1259770235 376530259#0 376530259#1 376530259#2-AddedOnRampEdge 376530259#2"/>
    </vehicle>
    <vehicle id="75" type="passenger" depart="750.00" departLane="best" departSpeed="max">
        <route edges="-1102788941 1102788941"/>
    </vehicle>
    <vehicle id="76" type="passenger" depart="760.00" departLane="best" departSpeed="max">
        <route edges="995100107#0 995100107#1 -782292584#0 667751249#2 995100108"/>
    </vehicle>
    <vehicle id="77" type="passenger" depart="770.00" departLane="best" departSpeed="max">
        <route edges="-1111845888 1111845888 86637077#0 86637077#2 86637077#4 86637077#5 86637077#6 86637077#8 86637077#10 86637077#11 86637077#13 86637077#15 86637077#17 86637077#18 -770628037#1 -770628037#0 770628027#2 -238203453#0"/>
    </vehicle>
    <vehicle id="78" type="passenger" depart="780.00" departLane="best" departSpeed="max">
        <route edges="-667751244 -1156567346#1 -1156567346#0 -114817858#8 -727393539#2 -727393539#1 -727393539#0 -86637077#8 -86637077#6 791724440"/>
    </vehicle>
    <vehicle id="79" type="passenger" depart="790.00" departLane="best" departSpeed="max">
        <route edges="-782113567 -86637077#18 -86637077#17 -238191046#6 -238191046#5 -238191046#4 -238191041"/>
    </vehicle>
    <vehicle id="80" type="passenger" depart="800.00" departLane="best" departSpeed="max">
        <route edges="238191035#0 238191033#0 238191033#1 325929762#0 325929762#1 325929762#2 726510902#0 726510902#1 667751249#0 667751249#1 667751249#2 698555589 -114817850#1 -114817850#0"/>
    </vehicle>
    <vehicle id="81" type="passenger" depart="810.00" departLane="best" departSpeed="max">
        <route edges="238191037 238191036#0 238191031#1 86637077#10 86637077#11 86637077#13 86637077#15 86637077#17 86637077#18 -770628037#1 -770628037#0 -791724501 238203453#2 -238203453#2 791724501"/>
    </vehicle>
    <vehicle id="82" type="passenger" depart="820.00" departLane="best" departSpeed="max">
        <route edges="-1156567346#3 -1156567346#2 -1156567346#1 -1156567346#0 -114817858#8 -114817858#7 -114817858#6 -114817858#5 -114817858#4 -114817858#3 -726510902#1 -726510902#0 -325929762#2 1227941252"/>
    </vehicle>
    <vehicle id="83" type="passenger" depart="830.00" departLane="best" departSpeed="max">
        <route edges="238204954#1 -782292584#1 -782292584#0 -667751249#1 -667751249#0 -726510902#1 -726510902#0 -325929762#2 -325929762#1 -325929762#0 86637077#4 86637077#5 86637077#6 86637077#8 86637077#10 86637077#11 86637077#13 86637077#15 -238191046#6 -238191046#5 -238191046#4 -238191046#3 -238191047"/>
    </vehicle>
    <vehicle id="84" type="passenger" depart="840.00" departLane="best" departSpeed="max">
        <route edges="458681911#0 1111845888 86637077#0 86637077#2 -238191033#1 -1228802819"/>
    </vehicle>
    <vehicle id="85" type="passenger" depart="850.00" departLane="best" departSpeed="max">
        <route edges="-86637077#20 -86637077#18 -86637077#17 -86637077#15 -86637077#13 -86637077#11 -86637077#10 -86637077#8 -86637077#6 -86637077#5 667751250 -114817858#5 -114817858#4 -114817858#3 -726510902#1 -726510902#0"/>
    </vehicle>
    <vehicle id="86" type="passenger" depart="860.00" departLane="best" departSpeed="max">
        <route edges="325929761 667001219#0 667001219#3 -114817858#7 -114817858#6 -114817858#5 -114817858#4 -114817858#3 -726510902#1 -726510902#0 -325929762#2 1227941252"/>
    </vehicle>
    <vehicle id="87" type="passenger" depart="870.00" departLane="best" departSpeed="max">
        <route edges="-86637077#20 -86637077#18 -86637077#17 -86637077#15 -86637077#13 -86637077#11 -86637077#10 -86637077#8 -86637077#6 -86637077#5 -86637077#4 325929762#0 325929762#1 325929762#2 726510902#0 726510902#1 667751249#0 667751249#1 667751249#2 698555589 -114817850#1"/>
    </vehicle>
    <vehicle id="88" type="passenger" depart="880.00" departLane="best" departSpeed="max">
        <route edges="-1227941256 -1156567346#0 -114817858#8 -727393539#2 -727393539#1 -727393539#0 -86637077#8 -86637077#6 -86637077#5 -86637077#4 -238191033#1 -238191033#0 -238191035#0"/>
    </vehicle>
    <vehicle id="89" type="passenger" depart="890.00" departLane="best" departSpeed="max">
        <route edges="727393539#0 791724420 325929772#2 86637077#8 86637077#10 86637077#11 86637077#13 86637077#15 86637077#17 86637077#18 -770628037#1 -770628037#0 770628027#2 -238203453#0"/>
    </vehicle>
    <vehicle id="90" type="passenger" depart="900.00" departLane="best" departSpeed="max">
        <route edges="-325929772#2 325929772#2 -86637077#6 -86637077#5 -86637077#4 -238191033#1 -1228802819"/>
    </vehicle>
    <vehicle id="91" type="passenger" depart="910.00" departLane="best" departSpeed="max">
        <route edges="36987764#0 36987764#0-AddedOffRampEdge 36987764#1 1368374288 693777342 30415524 760685446"/>
    </vehicle>
    <vehicle id="92" type="passenger" depart="920.00" departLane="best" departSpeed="max">
        <route edges="-1227941256 -1156567346#0 -114817858#8 -727393539#2 -727393539#1 -727393539#0 -86637077#8 -86637077#6 791724440"/>
    </vehicle>
    <vehicle id="93" type="passenger" depart="930.00" departLane="best" departSpeed="max">
        <route edges="661912171#0 661912171#1 86637077#2 325929762#0 325929762#1 325929762#2 726510902#0 995100106#0 995100106#1"/>
    </vehicle>
    <vehicle id="94" type="passenger" depart="940.00" departLane="best" departSpeed="max">
        <route edges="-238191046#3 238191046#3 238191046#4 238191046#5 238191046#6 -86637077#15 -86637077#13 -86637077#11 -86637077#10 -86637077#8 -86637077#6 -86637077#5 -86637077#4 325929762#0 325929762#1 325929762#2 726510902#0 726510902#1 667751249#0 667751249#1"/>
    </vehicle>
    <vehicle id="95" type="passenger" depart="950.00" departLane="best" departSpeed="max">
        <route edges="-1102785248 -114817850#0 114817858#5 -667751250 86637077#5 86637077#6 86637077#8 86637077#10 86637077#11 86637077#13 86637077#15 -238191046#6"/>
    </vehicle>
    <vehicle id="96" type="passenger" depart="960.00" departLane="best" departSpeed="max">
        <route edges="791743475 -1102785255 238191031#1 86637077#10 86637077#11 86637077#13 86637077#15 86637077#17 238191040#1 -325929767#2 -727393538"/>
    </vehicle>
    <vehicle id="97" type="passenger" depart="970.00" departLane="best" departSpeed="max">
        <route edges="791724437 667001219#3 -114817858#7 -114817858#6 -114817858#5 114817850#0 114817850#1 -791724438#1 -791724438#0 -1316918341"/>
    </vehicle>
    <vehicle id="98" type="passenger" depart="980.00" departLane="best" departSpeed="max">
        <route edges="791743475 -1102785255 238191031#1 86637077#10 86637077#11 86637077#13 86637077#15 -238191046#6 -238191046#5 -238191046#4 -238191046#3 -238191046#2 -238191046#0"/>
    </vehicle>
    <vehicle id="99" type="passenger" depart="990.00" departLane="best" departSpeed="max">
        <route edges="791743475 -1102785255 238191031#1 86637077#10 86637077#11 -559334472"/>
    </vehicle>
</routes>
