<?xml version="1.0" encoding="UTF-8"?>

<!-- generated on 2025-10-29T01:33:31.482185+05:30 by Eclipse SUMO netconvert v1_24_0+1454-51d0da9119e
<netconvertConfiguration xmlns:xsi="http://www.w3.org/2001/XMLSchema-instance" xsi:noNamespaceSchemaLocation="http://sumo.dlr.de/xsd/netconvertConfiguration.xsd">

    <input>
        <osm-files value="jayanagar.osm"/>
    </input>

    <output>
        <output-file value="jayanagar.net.xml"/>
    </output>

    <projection>
        <proj.utm value="true"/>
    </projection>

    <processing>
        <geometry.remove value="true"/>
    </processing>

    <tls_building>
        <tls.discard-simple value="true"/>
        <tls.join value="true"/>
        <tls.guess-signals value="true"/>
    </tls_building>

    <ramp_guessing>
        <ramps.guess value="true"/>
    </ramp_guessing>

    <edge_removal>
        <keep-edges.by-vclass value="passenger"/>
        <remove-edges.isolated value="true"/>
    </edge_removal>

    <junctions>
        <junctions.join value="true"/>
    </junctions>

</netconvertConfiguration>
-->

<net version="1.20" junctionCornerDetail="5" limitTurnSpeed="5.50" xmlns:xsi="http://www.w3.org/2001/XMLSchema-instance" xsi:noNamespaceSchemaLocation="http://sumo.dlr.de/xsd/net_file.xsd">

    <location netOffset="-779530.06,-1429386.76" convBoundary="0.00,0.00,2275.31,1748.13" origBoundary="77.576208,12.917162,77.597141,12.932938" projParameter="+proj=utm +zone=43 +ellps=WGS84 +datum=WGS84 +units=m +no_defs"/>

    <type id="highway.living_street" priority="2" numLanes="1" speed="2.78" disallow="tram rail_urban rail rail_electric rail_fast ship container cable_car subway aircraft wheelchair scooter drone" oneway="0"/>
    <type id="highway.residential" priority="3" numLanes="1" speed="13.89" disallow="tram rail_urban rail rail_electric rail_fast ship container cable_car subway aircraft wheelchair scooter drone" oneway="0"/>
    <type id="highway.secondary" priority="11" numLanes="1" speed="27.78" disallow="tram rail_urban rail rail_electric rail_fast ship container cable_car subway aircraft wheelchair scooter drone" oneway="0"/>
    <type id="highway.tertiary" priority="10" numLanes="1" speed="22.22" disallow="tram rail_urban rail rail_electric rail_fast ship container cable_car subway aircraft wheelchair scooter drone" oneway="0"/>

    <edge id=":10091488313_0" function="internal">
        <lane id=":10091488313_0_0" index="0" disallow="tram rail_urban rail rail_electric rail_fast ship container cable_car subway aircraft wheelchair scooter drone" speed="3.65" length="4.67" shape="1316.22,1436.32 1317.57,1436.84 1318.13,1437.53 1317.92,1438.40 1316.92,1439.44"/>
    </edge>
    <edge id=":10091497938_0" function="internal">
        <lane id=":10091497938_0_0" index="0" disallow="tram rail_urban rail rail_electric rail_fast ship container cable_car subway aircraft wheelchair scooter drone" speed="6.87" length="9.50" shape="1431.57,1278.27 1430.33,1275.88 1428.69,1274.38 1426.66,1273.76 1424.22,1274.03"/>
    </edge>
    <edge id=":10091497938_1" function="internal">
        <lane id=":10091497938_1_0" index="0" disallow="tram rail_urban rail rail_electric rail_fast ship container cable_car subway aircraft wheelchair scooter drone" speed="7.07" length="11.59" shape="1431.57,1278.27 1430.50,1274.39 1430.45,1271.42 1431.43,1269.37 1433.44,1268.23"/>
    </edge>
    <edge id=":10091497938_2" function="internal">
        <lane id=":10091497938_2_0" index="0" disallow="tram rail_urban rail rail_electric rail_fast ship container cable_car subway aircraft wheelchair scooter drone" speed="3.65" length="4.67" shape="1431.57,1278.27 1431.91,1276.87 1432.52,1276.22 1433.41,1276.31 1434.58,1277.17"/>
    </edge>
    <edge id=":10091497938_3" function="internal">
        <lane id=":10091497938_3_0" index="0" disallow="tram rail_urban rail rail_electric rail_fast ship container cable_car subway aircraft wheelchair scooter drone" speed="5.40" length="6.28" shape="1434.27,1271.32 1433.66,1271.85 1433.51,1273.01 1433.82,1274.78 1434.58,1277.17"/>
    </edge>
    <edge id=":10091497938_4" function="internal">
        <lane id=":10091497938_4_0" index="0" disallow="tram rail_urban rail rail_electric rail_fast ship container cable_car subway aircraft wheelchair scooter drone" speed="22.22" length="10.42" shape="1434.27,1271.32 1424.22,1274.03"/>
    </edge>
    <edge id=":10091497938_5" function="internal">
        <lane id=":10091497938_5_0" index="0" disallow="tram rail_urban rail rail_electric rail_fast ship container cable_car subway aircraft wheelchair scooter drone" speed="3.65" length="1.44" shape="1434.27,1271.32 1432.91,1270.86"/>
    </edge>
    <edge id=":10091497938_9" function="internal">
        <lane id=":10091497938_9_0" index="0" disallow="tram rail_urban rail rail_electric rail_fast ship container cable_car subway aircraft wheelchair scooter drone" speed="3.65" length="3.23" shape="1432.91,1270.86 1432.31,1270.19 1432.49,1269.31 1433.44,1268.23"/>
    </edge>
    <edge id=":10091497938_6" function="internal">
        <lane id=":10091497938_6_0" index="0" disallow="tram rail_urban rail rail_electric rail_fast ship container cable_car subway aircraft wheelchair scooter drone" speed="22.22" length="10.42" shape="1423.38,1270.94 1433.44,1268.23"/>
    </edge>
    <edge id=":10091497938_7" function="internal">
        <lane id=":10091497938_7_0" index="0" disallow="tram rail_urban rail rail_electric rail_fast ship container cable_car subway aircraft wheelchair scooter drone" speed="8.31" length="3.93" shape="1423.38,1270.94 1427.12,1270.51 1427.28,1270.56"/>
    </edge>
    <edge id=":10091497938_8" function="internal">
        <lane id=":10091497938_8_0" index="0" disallow="tram rail_urban rail rail_electric rail_fast ship container cable_car subway aircraft wheelchair scooter drone" speed="3.65" length="1.44" shape="1423.38,1270.94 1424.75,1271.40"/>
    </edge>
    <edge id=":10091497938_10" function="internal">
        <lane id=":10091497938_10_0" index="0" disallow="tram rail_urban rail rail_electric rail_fast ship container cable_car subway aircraft wheelchair scooter drone" speed="8.31" length="10.40" shape="1427.28,1270.56 1430.23,1271.40 1432.72,1273.62 1434.58,1277.17"/>
    </edge>
    <edge id=":10091497938_11" function="internal">
        <lane id=":10091497938_11_0" index="0" disallow="tram rail_urban rail rail_electric rail_fast ship container cable_car subway aircraft wheelchair scooter drone" speed="3.65" length="3.23" shape="1424.75,1271.40 1425.35,1272.07 1425.17,1272.95 1424.22,1274.03"/>
    </edge>
    <edge id=":10091497939_0" function="internal">
        <lane id=":10091497939_0_0" index="0" disallow="tram rail_urban rail rail_electric rail_fast ship container cable_car subway aircraft wheelchair scooter drone" speed="27.78" length="9.40" shape="1474.97,1273.35 1484.37,1273.27"/>
        <lane id=":10091497939_0_1" index="1" disallow="tram rail_urban rail rail_electric rail_fast ship container cable_car subway aircraft wheelchair scooter drone" speed="27.78" length="9.40" shape="1474.99,1276.55 1484.40,1276.47"/>
    </edge>
    <edge id=":10091497939_2" function="internal">
        <lane id=":10091497939_2_0" index="0" disallow="tram rail_urban rail rail_electric rail_fast ship container cable_car subway aircraft wheelchair scooter drone" speed="6.03" length="7.91" shape="1474.99,1276.55 1477.78,1276.74 1479.75,1277.35 1480.90,1278.39 1481.23,1279.86"/>
    </edge>
    <edge id=":10091497939_3" function="internal">
        <lane id=":10091497939_3_0" index="0" disallow="tram rail_urban rail rail_electric rail_fast ship container cable_car subway aircraft wheelchair scooter drone" speed="6.23" length="7.85" shape="1478.03,1279.71 1478.49,1278.31 1479.70,1277.31 1481.67,1276.69 1484.40,1276.47"/>
    </edge>
    <edge id=":10091497939_4" function="internal">
        <lane id=":10091497939_4_0" index="0" disallow="tram rail_urban rail rail_electric rail_fast ship container cable_car subway aircraft wheelchair scooter drone" speed="3.65" length="4.67" shape="1478.03,1279.71 1478.89,1278.55 1479.71,1278.19 1480.49,1278.62 1481.23,1279.86"/>
    </edge>
    <edge id=":10091497940_0" function="internal">
        <lane id=":10091497940_0_0" index="0" disallow="tram rail_urban rail rail_electric rail_fast ship container cable_car subway aircraft wheelchair scooter drone" speed="3.65" length="4.67" shape="1479.25,1321.92 1478.39,1323.08 1477.57,1323.44 1476.79,1323.00 1476.05,1321.76"/>
    </edge>
    <edge id=":10091497941_0" function="internal">
        <lane id=":10091497941_0_0" index="0" disallow="tram rail_urban rail rail_electric rail_fast ship container cable_car subway aircraft wheelchair scooter drone" speed="3.65" length="4.67" shape="1521.47,1289.61 1520.79,1290.88 1520.03,1291.35 1519.19,1291.03 1518.29,1289.91"/>
    </edge>
    <edge id=":10091498055_0" function="internal">
        <lane id=":10091498055_0_0" index="0" disallow="tram rail_urban rail rail_electric rail_fast ship container cable_car subway aircraft wheelchair scooter drone" speed="13.89" length="13.16" shape="1523.96,1549.95 1512.64,1556.66"/>
    </edge>
    <edge id=":10091498055_1" function="internal">
        <lane id=":10091498055_1_0" index="0" disallow="tram rail_urban rail rail_electric rail_fast ship container cable_car subway aircraft wheelchair scooter drone" speed="8.02" length="4.05" shape="1523.96,1549.95 1520.38,1551.43 1520.20,1551.43"/>
    </edge>
    <edge id=":10091498055_2" function="internal">
        <lane id=":10091498055_2_0" index="0" disallow="tram rail_urban rail rail_electric rail_fast ship container cable_car subway aircraft wheelchair scooter drone" speed="3.65" length="1.44" shape="1523.96,1549.95 1522.52,1549.87"/>
    </edge>
    <edge id=":10091498055_9" function="internal">
        <lane id=":10091498055_9_0" index="0" disallow="tram rail_urban rail rail_electric rail_fast ship container cable_car subway aircraft wheelchair scooter drone" speed="8.02" length="10.15" shape="1520.20,1551.43 1517.17,1551.41 1514.33,1549.89 1511.88,1546.87"/>
    </edge>
    <edge id=":10091498055_10" function="internal">
        <lane id=":10091498055_10_0" index="0" disallow="tram rail_urban rail rail_electric rail_fast ship container cable_car subway aircraft wheelchair scooter drone" speed="3.65" length="3.23" shape="1522.52,1549.87 1521.77,1549.39 1521.71,1548.50 1522.33,1547.20"/>
    </edge>
    <edge id=":10091498055_3" function="internal">
        <lane id=":10091498055_3_0" index="0" disallow="tram rail_urban rail rail_electric rail_fast ship container cable_car subway aircraft wheelchair scooter drone" speed="6.53" length="9.07" shape="1514.62,1545.22 1516.19,1547.15 1518.00,1548.13 1520.05,1548.14 1522.33,1547.20"/>
    </edge>
    <edge id=":10091498055_4" function="internal">
        <lane id=":10091498055_4_0" index="0" disallow="tram rail_urban rail rail_electric rail_fast ship container cable_car subway aircraft wheelchair scooter drone" speed="7.73" length="13.23" shape="1514.62,1545.22 1516.20,1548.77 1516.40,1551.86 1515.21,1554.49 1512.64,1556.66"/>
    </edge>
    <edge id=":10091498055_5" function="internal">
        <lane id=":10091498055_5_0" index="0" disallow="tram rail_urban rail rail_electric rail_fast ship container cable_car subway aircraft wheelchair scooter drone" speed="3.65" length="4.67" shape="1514.62,1545.22 1514.55,1546.66 1514.07,1547.41 1513.18,1547.48 1511.88,1546.87"/>
    </edge>
    <edge id=":10091498055_6" function="internal">
        <lane id=":10091498055_6_0" index="0" disallow="tram rail_urban rail rail_electric rail_fast ship container cable_car subway aircraft wheelchair scooter drone" speed="6.17" length="8.06" shape="1511.01,1553.90 1512.47,1552.63 1513.11,1551.03 1512.91,1549.11 1511.88,1546.87"/>
    </edge>
    <edge id=":10091498055_7" function="internal">
        <lane id=":10091498055_7_0" index="0" disallow="tram rail_urban rail rail_electric rail_fast ship container cable_car subway aircraft wheelchair scooter drone" speed="13.89" length="13.16" shape="1511.01,1553.90 1522.33,1547.20"/>
    </edge>
    <edge id=":10091498055_8" function="internal">
        <lane id=":10091498055_8_0" index="0" disallow="tram rail_urban rail rail_electric rail_fast ship container cable_car subway aircraft wheelchair scooter drone" speed="3.65" length="1.44" shape="1511.01,1553.90 1512.45,1553.98"/>
    </edge>
    <edge id=":10091498055_11" function="internal">
        <lane id=":10091498055_11_0" index="0" disallow="tram rail_urban rail rail_electric rail_fast ship container cable_car subway aircraft wheelchair scooter drone" speed="3.65" length="3.23" shape="1512.45,1553.98 1513.20,1554.46 1513.27,1555.36 1512.64,1556.66"/>
    </edge>
    <edge id=":10091498060_0" function="internal">
        <lane id=":10091498060_0_0" index="0" disallow="tram rail_urban rail rail_electric rail_fast ship container cable_car subway aircraft wheelchair scooter drone" speed="13.89" length="12.23" shape="1547.48,1536.02 1536.96,1542.25"/>
    </edge>
    <edge id=":10091498060_1" function="internal">
        <lane id=":10091498060_1_0" index="0" disallow="tram rail_urban rail rail_electric rail_fast ship container cable_car subway aircraft wheelchair scooter drone" speed="7.48" length="3.01" shape="1547.48,1536.02 1544.65,1537.04"/>
    </edge>
    <edge id=":10091498060_2" function="internal">
        <lane id=":10091498060_2_0" index="0" disallow="tram rail_urban rail rail_electric rail_fast ship container cable_car subway aircraft wheelchair scooter drone" speed="3.65" length="1.44" shape="1547.48,1536.02 1546.04,1535.94"/>
    </edge>
    <edge id=":10091498060_9" function="internal">
        <lane id=":10091498060_9_0" index="0" disallow="tram rail_urban rail rail_electric rail_fast ship container cable_car subway aircraft wheelchair scooter drone" speed="7.48" length="9.65" shape="1544.65,1537.04 1542.01,1536.65 1539.58,1534.82 1537.34,1531.57"/>
    </edge>
    <edge id=":10091498060_10" function="internal">
        <lane id=":10091498060_10_0" index="0" disallow="tram rail_urban rail rail_electric rail_fast ship container cable_car subway aircraft wheelchair scooter drone" speed="3.65" length="3.23" shape="1546.04,1535.94 1545.29,1535.46 1545.22,1534.56 1545.85,1533.26"/>
    </edge>
    <edge id=":10091498060_3" function="internal">
        <lane id=":10091498060_3_0" index="0" disallow="tram rail_urban rail rail_electric rail_fast ship container cable_car subway aircraft wheelchair scooter drone" speed="5.87" length="7.39" shape="1540.16,1530.05 1541.52,1532.13 1542.93,1533.35 1544.37,1533.73 1545.85,1533.26"/>
    </edge>
    <edge id=":10091498060_4" function="internal">
        <lane id=":10091498060_4_0" index="0" disallow="tram rail_urban rail rail_electric rail_fast ship container cable_car subway aircraft wheelchair scooter drone" speed="8.14" length="14.25" shape="1540.16,1530.05 1541.54,1533.75 1541.46,1537.01 1539.94,1539.84 1536.96,1542.25"/>
    </edge>
    <edge id=":10091498060_5" function="internal">
        <lane id=":10091498060_5_0" index="0" disallow="tram rail_urban rail rail_electric rail_fast ship container cable_car subway aircraft wheelchair scooter drone" speed="3.65" length="4.67" shape="1540.16,1530.05 1540.02,1531.49 1539.51,1532.22 1538.62,1532.25 1537.34,1531.57"/>
    </edge>
    <edge id=":10091498060_6" function="internal">
        <lane id=":10091498060_6_0" index="0" disallow="tram rail_urban rail rail_electric rail_fast ship container cable_car subway aircraft wheelchair scooter drone" speed="6.67" length="9.24" shape="1535.33,1539.50 1537.24,1537.94 1538.21,1536.11 1538.25,1533.98 1537.34,1531.57"/>
    </edge>
    <edge id=":10091498060_7" function="internal">
        <lane id=":10091498060_7_0" index="0" disallow="tram rail_urban rail rail_electric rail_fast ship container cable_car subway aircraft wheelchair scooter drone" speed="13.89" length="12.23" shape="1535.33,1539.50 1545.85,1533.26"/>
    </edge>
    <edge id=":10091498060_8" function="internal">
        <lane id=":10091498060_8_0" index="0" disallow="tram rail_urban rail rail_electric rail_fast ship container cable_car subway aircraft wheelchair scooter drone" speed="3.65" length="1.44" shape="1535.33,1539.50 1536.77,1539.57"/>
    </edge>
    <edge id=":10091498060_11" function="internal">
        <lane id=":10091498060_11_0" index="0" disallow="tram rail_urban rail rail_electric rail_fast ship container cable_car subway aircraft wheelchair scooter drone" speed="3.65" length="3.23" shape="1536.77,1539.57 1537.52,1540.06 1537.58,1540.95 1536.96,1542.25"/>
    </edge>
    <edge id=":10091498061_0" function="internal">
        <lane id=":10091498061_0_0" index="0" disallow="tram rail_urban rail rail_electric rail_fast ship container cable_car subway aircraft wheelchair scooter drone" speed="5.89" length="7.06" shape="1519.30,1512.90 1518.36,1511.91 1516.99,1511.56 1515.18,1511.86 1512.92,1512.79"/>
    </edge>
    <edge id=":10091498061_1" function="internal">
        <lane id=":10091498061_1_0" index="0" disallow="tram rail_urban rail rail_electric rail_fast ship container cable_car subway aircraft wheelchair scooter drone" speed="7.38" length="12.18" shape="1519.30,1512.90 1518.50,1510.27 1519.08,1507.82 1521.01,1505.53 1524.32,1503.43"/>
    </edge>
    <edge id=":10091498061_2" function="internal">
        <lane id=":10091498061_2_0" index="0" disallow="tram rail_urban rail rail_electric rail_fast ship container cable_car subway aircraft wheelchair scooter drone" speed="3.65" length="4.67" shape="1519.30,1512.90 1519.43,1511.46 1519.94,1510.73 1520.83,1510.70 1522.11,1511.38"/>
    </edge>
    <edge id=":10091498061_3" function="internal">
        <lane id=":10091498061_3_0" index="0" disallow="tram rail_urban rail rail_electric rail_fast ship container cable_car subway aircraft wheelchair scooter drone" speed="5.76" length="6.98" shape="1525.76,1506.28 1523.65,1507.56 1522.33,1508.83 1521.82,1510.10 1522.11,1511.38"/>
    </edge>
    <edge id=":10091498061_4" function="internal">
        <lane id=":10091498061_4_0" index="0" disallow="tram rail_urban rail rail_electric rail_fast ship container cable_car subway aircraft wheelchair scooter drone" speed="13.89" length="14.40" shape="1525.76,1506.28 1512.92,1512.79"/>
    </edge>
    <edge id=":10091498061_5" function="internal">
        <lane id=":10091498061_5_0" index="0" disallow="tram rail_urban rail rail_electric rail_fast ship container cable_car subway aircraft wheelchair scooter drone" speed="3.65" length="1.44" shape="1525.76,1506.28 1524.33,1506.11"/>
    </edge>
    <edge id=":10091498061_9" function="internal">
        <lane id=":10091498061_9_0" index="0" disallow="tram rail_urban rail rail_electric rail_fast ship container cable_car subway aircraft wheelchair scooter drone" speed="3.65" length="3.23" shape="1524.33,1506.11 1523.61,1505.58 1523.61,1504.68 1524.32,1503.43"/>
    </edge>
    <edge id=":10091498061_6" function="internal">
        <lane id=":10091498061_6_0" index="0" disallow="tram rail_urban rail rail_electric rail_fast ship container cable_car subway aircraft wheelchair scooter drone" speed="13.89" length="14.40" shape="1511.47,1509.94 1524.32,1503.43"/>
    </edge>
    <edge id=":10091498061_7" function="internal">
        <lane id=":10091498061_7_0" index="0" disallow="tram rail_urban rail rail_electric rail_fast ship container cable_car subway aircraft wheelchair scooter drone" speed="7.50" length="4.56" shape="1511.47,1509.94 1515.04,1508.56 1515.78,1508.50"/>
    </edge>
    <edge id=":10091498061_8" function="internal">
        <lane id=":10091498061_8_0" index="0" disallow="tram rail_urban rail rail_electric rail_fast ship container cable_car subway aircraft wheelchair scooter drone" speed="3.65" length="1.44" shape="1511.47,1509.94 1512.90,1510.11"/>
    </edge>
    <edge id=":10091498061_10" function="internal">
        <lane id=":10091498061_10_0" index="0" disallow="tram rail_urban rail rail_electric rail_fast ship container cable_car subway aircraft wheelchair scooter drone" speed="7.50" length="7.50" shape="1515.78,1508.50 1518.00,1508.34 1520.35,1509.28 1522.11,1511.38"/>
    </edge>
    <edge id=":10091498061_11" function="internal">
        <lane id=":10091498061_11_0" index="0" disallow="tram rail_urban rail rail_electric rail_fast ship container cable_car subway aircraft wheelchair scooter drone" speed="3.65" length="3.23" shape="1512.90,1510.11 1513.62,1510.64 1513.63,1511.54 1512.92,1512.79"/>
    </edge>
    <edge id=":10091498126_0" function="internal">
        <lane id=":10091498126_0_0" index="0" disallow="tram rail_urban rail rail_electric rail_fast ship container cable_car subway aircraft wheelchair scooter drone" speed="13.89" length="14.38" shape="1399.23,1534.02 1396.04,1535.81 1392.97,1537.58 1389.86,1539.25 1386.54,1540.76"/>
    </edge>
    <edge id=":10091498126_1" function="internal">
        <lane id=":10091498126_1_0" index="0" disallow="tram rail_urban rail rail_electric rail_fast ship container cable_car subway aircraft wheelchair scooter drone" speed="7.93" length="3.14" shape="1399.23,1534.02 1396.28,1535.10"/>
    </edge>
    <edge id=":10091498126_2" function="internal">
        <lane id=":10091498126_2_0" index="0" disallow="tram rail_urban rail rail_electric rail_fast ship container cable_car subway aircraft wheelchair scooter drone" speed="3.65" length="1.44" shape="1399.23,1534.02 1397.79,1533.88"/>
    </edge>
    <edge id=":10091498126_9" function="internal">
        <lane id=":10091498126_9_0" index="0" disallow="tram rail_urban rail rail_electric rail_fast ship container cable_car subway aircraft wheelchair scooter drone" speed="7.93" length="11.21" shape="1396.28,1535.10 1395.51,1535.38 1392.30,1535.20 1389.58,1533.48 1387.36,1530.20"/>
    </edge>
    <edge id=":10091498126_10" function="internal">
        <lane id=":10091498126_10_0" index="0" disallow="tram rail_urban rail rail_electric rail_fast ship container cable_car subway aircraft wheelchair scooter drone" speed="3.65" length="3.23" shape="1397.79,1533.88 1397.06,1533.37 1397.03,1532.47 1397.71,1531.20"/>
    </edge>
    <edge id=":10091498126_3" function="internal">
        <lane id=":10091498126_3_0" index="0" disallow="tram rail_urban rail rail_electric rail_fast ship container cable_car subway aircraft wheelchair scooter drone" speed="6.41" length="9.04" shape="1390.24,1528.80 1391.64,1530.86 1393.35,1531.95 1395.37,1532.06 1397.71,1531.20"/>
    </edge>
    <edge id=":10091498126_4" function="internal">
        <lane id=":10091498126_4_0" index="0" disallow="tram rail_urban rail rail_electric rail_fast ship container cable_car subway aircraft wheelchair scooter drone" speed="7.89" length="14.49" shape="1390.24,1528.80 1391.60,1532.83 1391.44,1536.16 1389.75,1538.81 1386.54,1540.76"/>
    </edge>
    <edge id=":10091498126_5" function="internal">
        <lane id=":10091498126_5_0" index="0" disallow="tram rail_urban rail rail_electric rail_fast ship container cable_car subway aircraft wheelchair scooter drone" speed="3.65" length="4.67" shape="1390.24,1528.80 1390.04,1530.23 1389.50,1530.94 1388.61,1530.93 1387.36,1530.20"/>
    </edge>
    <edge id=":10091498126_6" function="internal">
        <lane id=":10091498126_6_0" index="0" disallow="tram rail_urban rail rail_electric rail_fast ship container cable_car subway aircraft wheelchair scooter drone" speed="5.99" length="10.40" shape="1384.99,1537.74 1387.46,1537.40 1388.68,1536.02 1388.65,1533.62 1387.36,1530.20"/>
    </edge>
    <edge id=":10091498126_7" function="internal">
        <lane id=":10091498126_7_0" index="0" disallow="tram rail_urban rail rail_electric rail_fast ship container cable_car subway aircraft wheelchair scooter drone" speed="13.89" length="14.54" shape="1384.99,1537.74 1388.47,1537.17 1391.57,1535.46 1394.57,1533.26 1397.71,1531.20"/>
    </edge>
    <edge id=":10091498126_8" function="internal">
        <lane id=":10091498126_8_0" index="0" disallow="tram rail_urban rail rail_electric rail_fast ship container cable_car subway aircraft wheelchair scooter drone" speed="3.94" length="1.69" shape="1384.99,1537.74 1386.51,1537.92 1386.64,1538.01"/>
    </edge>
    <edge id=":10091498126_11" function="internal">
        <lane id=":10091498126_11_0" index="0" disallow="tram rail_urban rail rail_electric rail_fast ship container cable_car subway aircraft wheelchair scooter drone" speed="3.94" length="3.27" shape="1386.64,1538.01 1387.27,1538.48 1387.28,1539.43 1386.54,1540.76"/>
    </edge>
    <edge id=":10091498127_0" function="internal">
        <lane id=":10091498127_0_0" index="0" disallow="tram rail_urban rail rail_electric rail_fast ship container cable_car subway aircraft wheelchair scooter drone" speed="3.65" length="4.67" shape="1367.47,1489.29 1367.67,1487.86 1368.21,1487.15 1369.10,1487.16 1370.35,1487.89"/>
    </edge>
    <edge id=":10091510878_0" function="internal">
        <lane id=":10091510878_0_0" index="0" disallow="tram rail_urban rail rail_electric rail_fast ship container cable_car subway aircraft wheelchair scooter drone" speed="3.65" length="4.67" shape="1485.90,1316.81 1485.93,1315.36 1486.38,1314.59 1487.27,1314.50 1488.60,1315.07"/>
    </edge>
    <edge id=":10091709733_0" function="internal">
        <lane id=":10091709733_0_0" index="0" disallow="tram rail_urban rail rail_electric rail_fast ship container cable_car subway aircraft wheelchair scooter drone" speed="13.89" length="14.40" shape="584.98,1410.68 584.86,1396.28"/>
    </edge>
    <edge id=":10091709733_1" function="internal">
        <lane id=":10091709733_1_0" index="0" disallow="tram rail_urban rail rail_electric rail_fast ship container cable_car subway aircraft wheelchair scooter drone" speed="8.09" length="4.02" shape="584.98,1410.68 585.50,1406.87 585.59,1406.72"/>
    </edge>
    <edge id=":10091709733_2" function="internal">
        <lane id=":10091709733_2_0" index="0" disallow="tram rail_urban rail rail_electric rail_fast ship container cable_car subway aircraft wheelchair scooter drone" speed="3.65" length="1.44" shape="584.98,1410.68 585.77,1409.48"/>
    </edge>
    <edge id=":10091709733_9" function="internal">
        <lane id=":10091709733_9_0" index="0" disallow="tram rail_urban rail rail_electric rail_fast ship container cable_car subway aircraft wheelchair scooter drone" speed="8.09" length="10.21" shape="585.59,1406.72 587.14,1404.10 589.88,1402.38 593.75,1401.69"/>
    </edge>
    <edge id=":10091709733_10" function="internal">
        <lane id=":10091709733_10_0" index="0" disallow="tram rail_urban rail rail_electric rail_fast ship container cable_car subway aircraft wheelchair scooter drone" speed="3.65" length="3.23" shape="585.77,1409.48 586.57,1409.07 587.37,1409.46 588.18,1410.66"/>
    </edge>
    <edge id=":10091709733_3" function="internal">
        <lane id=":10091709733_3_0" index="0" disallow="tram rail_urban rail rail_electric rail_fast ship container cable_car subway aircraft wheelchair scooter drone" speed="6.62" length="9.18" shape="593.87,1404.89 591.36,1405.33 589.58,1406.44 588.52,1408.21 588.18,1410.66"/>
    </edge>
    <edge id=":10091709733_4" function="internal">
        <lane id=":10091709733_4_0" index="0" disallow="tram rail_urban rail rail_electric rail_fast ship container cable_car subway aircraft wheelchair scooter drone" speed="7.95" length="14.30" shape="593.87,1404.89 589.95,1404.48 587.15,1402.90 585.45,1400.17 584.86,1396.28"/>
    </edge>
    <edge id=":10091709733_5" function="internal">
        <lane id=":10091709733_5_0" index="0" disallow="tram rail_urban rail rail_electric rail_fast ship container cable_car subway aircraft wheelchair scooter drone" speed="3.65" length="4.67" shape="593.87,1404.89 592.64,1404.14 592.21,1403.35 592.58,1402.54 593.75,1401.69"/>
    </edge>
    <edge id=":10091709733_6" function="internal">
        <lane id=":10091709733_6_0" index="0" disallow="tram rail_urban rail rail_electric rail_fast ship container cable_car subway aircraft wheelchair scooter drone" speed="6.45" length="9.03" shape="588.06,1396.26 588.43,1398.71 589.50,1400.44 591.28,1401.43 593.75,1401.69"/>
    </edge>
    <edge id=":10091709733_7" function="internal">
        <lane id=":10091709733_7_0" index="0" disallow="tram rail_urban rail rail_electric rail_fast ship container cable_car subway aircraft wheelchair scooter drone" speed="13.89" length="14.40" shape="588.06,1396.26 588.18,1410.66"/>
    </edge>
    <edge id=":10091709733_8" function="internal">
        <lane id=":10091709733_8_0" index="0" disallow="tram rail_urban rail rail_electric rail_fast ship container cable_car subway aircraft wheelchair scooter drone" speed="3.65" length="1.44" shape="588.06,1396.26 587.27,1397.46"/>
    </edge>
    <edge id=":10091709733_11" function="internal">
        <lane id=":10091709733_11_0" index="0" disallow="tram rail_urban rail rail_electric rail_fast ship container cable_car subway aircraft wheelchair scooter drone" speed="3.65" length="3.23" shape="587.27,1397.46 586.47,1397.87 585.67,1397.48 584.86,1396.28"/>
    </edge>
    <edge id=":10091709734_0" function="internal">
        <lane id=":10091709734_0_0" index="0" disallow="tram rail_urban rail rail_electric rail_fast ship container cable_car subway aircraft wheelchair scooter drone" speed="6.47" length="9.03" shape="615.38,1409.74 614.98,1407.29 613.89,1405.57 612.12,1404.58 609.65,1404.31"/>
    </edge>
    <edge id=":10091709734_1" function="internal">
        <lane id=":10091709734_1_0" index="0" disallow="tram rail_urban rail rail_electric rail_fast ship container cable_car subway aircraft wheelchair scooter drone" speed="13.89" length="14.40" shape="615.38,1409.74 615.10,1395.34"/>
    </edge>
    <edge id=":10091709734_2" function="internal">