<?xml version="1.0" encoding="UTF-8"?>

<!-- generated on 2025-10-29T01:33:32.450054+05:30 by Eclipse SUMO duarouter v1_24_0+1454-51d0da9119e
<duarouterConfiguration xmlns:xsi="http://www.w3.org/2001/XMLSchema-instance" xsi:noNamespaceSchemaLocation="http://sumo.dlr.de/xsd/duarouterConfiguration.xsd">

    <input>
        <net-file value="jayanagar.net.xml"/>
        <route-files value="jayanagar.trips.xml"/>
    </input>

    <output>
        <output-file value="jayanagar.rou.xml"/>
    </output>

    <report>
        <no-warnings value="true"/>
        <ignore-errors value="true"/>
    </report>

</duarouterConfiguration>
-->

<routes xmlns:xsi="http://www.w3.org/2001/XMLSchema-instance" xsi:noNamespaceSchemaLocation="http://sumo.dlr.de/xsd/routes_file.xsd">
    <vType id="passenger" vClass="passenger"/>
    <vehicle id="0" type="passenger" depart="0.00" departLane="best" departSpeed="max">
        <route edges="23075482#0 23075482#1 23075482#2 23075482#4 23075482#5 23075482#6 27673041#4 1222891451 1222910791#2 -27673056 -1219765429#3 -1219765429#2"/>
    </vehicle>
    <vehicle id="1" type="passenger" depart="10.00" departLane="best" departSpeed="max">
        <route edges="-27707953 27708778#1 -27708046#2 -27708771#0 995260015 453955867#1 27554009#1 27554009#3 27554009#4 27554009#5 27554009#7 1203845399#0 1203845399#1 1203845399#2 1347259031#0 53748800#0 53748800#1 27446397#1 53748801#0 53748801#1 -27994974"/>
    </vehicle>
    <vehicle id="2" type="passenger" depart="20.00" departLane="best" departSpeed="max">
        <route edges="27672639#4 -27672639#4 -27672639#3 -1274862321#4 -1274862321#2 -1274862321#1 -27554025 1222891451 1222910791#2 -27673056 -1219765429#3 -1219765429#2 1215841694#6 27672785#1 27672785#2 27672785#3 27672785#4"/>
    </vehicle>
    <vehicle id="3" type="passenger" depart="30.00" departLane="best" departSpeed="max">
        <route edges="-39683086#4 -39683086#3 -39683086#2 -39683086#1 -39683086#0 27554009#7 1219765429#0 27672602#0 1219765431#2 -1219765432#1 -1219765432#0"/>
    </vehicle>
    <vehicle id="4" type="passenger" depart="40.00" departLane="best" departSpeed="max">
        <route edges="-27553995#5 -27553995#4 -27553995#3 -27553995#2 -27553995#1 -27553995#0 1387993944#2 698590793#3 1393191209 23075281#0"/>
    </vehicle>
    <vehicle id="5" type="passenger" depart="50.00" departLane="best" departSpeed="max">
        <route edges="23075494 23075313#3 23075313#4 23075313#5 23075313#6 23075313#7 23075313#8 23075314#0 23075314#2 23075314#3 23075314#4 23075314#5 23075314#6 553708934#0 553708934#1 553708934#2 553708934#3 1109973246#0 1215841694#1 -32425481#1 -32425481#0 23075471#3 23075471#5 23075471#6 23075471#7 23075471#8 23075471#9 23075471#10"/>
    </vehicle>
    <vehicle id="6" type="passenger" depart="60.00" departLane="best" departSpeed="max">
        <route edges="-27554009#2 27554009#1 27554009#3 27554009#4 -23075471#5 -23075471#4 -23075471#2 1387993944#0 442048037#0 442048037#1 -27446362#5 -27446362#4 -27446362#3 -27446362#2 -27446362#1 -27446362#0 27446407#2 27446407#3 27446407#4 27446407#5 27446407#6 27446407#7 27446407#8 27446407#9"/>
    </vehicle>
    <vehicle id="7" type="passenger" depart="70.00" departLane="best" departSpeed="max">
        <route edges="27791238#1 27446422#2 27994955#1 27994955#2 -27446407#7 -27446407#6 -27446407#5 -27446407#4 -27446407#3 -27446407#2 -27446407#0 55674051#2 23075471#0 32425481#0 32425481#1 1215841694#3 1215841694#4 1219765429#0 1219765429#3 1219765432#0 1219765432#1 27673139#0"/>
    </vehicle>
    <vehicle id="8" type="passenger" depart="80.00" departLane="best" departSpeed="max">
        <route edges="-28113227#1 23075332#7 -27672429#6 -27672429#5 -27672429#4 -27672429#3 -27672429#2 -27673056 -1219765429#3 -1219765429#2 -27554009#8 -27554009#5 -27554009#4"/>
    </vehicle>
    <vehicle id="9" type="passenger" depart="90.00" departLane="best" departSpeed="max">
        <route edges="553988549#0 553988549#1 152162978#1 152162978#2 152162978#3 152162978#4 152162978#5 1013624228#0 1013624228#1"/>
    </vehicle>
    <vehicle id="10" type="passenger" depart="100.00" departLane="best" departSpeed="max">
        <route edges="-1219765431#2 -1219765431#1 1270623441#0 1203845399#0 1203845399#1 1203845399#2 1012672492#0 27673041#1 27673041#2 27673041#4 1391305618#0 1391305618#1 1391305618#2 23075314#0 -259484456#1"/>
    </vehicle>
    <vehicle id="11" type="passenger" depart="110.00" departLane="best" departSpeed="max">
        <route edges="28113619#1 -27446422#5 -27446422#4 -27446422#3 27446422#3"/>
    </vehicle>
    <vehicle id="12" type="passenger" depart="120.00" departLane="best" departSpeed="max">
        <route edges="27994955#0 27446422#3 27446422#4 27446422#5 27446422#6 27446422#7 27446362#3 27446362#4 27446362#5 -442048037#1 -442048037#0 1387993944#2 698590793#3 698590793#4 1298979622#0 1393190842 648180564#0 648180564#1 27708778#0 27707953"/>
    </vehicle>
    <vehicle id="13" type="passenger" depart="130.00" departLane="best" departSpeed="max">
        <route edges="1203845399#0 1219765427#0 1219765430 -1219765429#3 -1219765429#2 -27554009#8 -27554009#5 -27554009#4 -27554009#3 -27554009#2 648180564#0"/>
    </vehicle>
    <vehicle id="14" type="passenger" depart="140.00" departLane="best" departSpeed="max">
        <route edges="-310658031 -28187223#5 -28187223#4 -28187223#3 -23075471#9 -23075471#8 -23075471#7 -23075471#6 -23075471#5 23075471#5"/>
    </vehicle>
    <vehicle id="15" type="passenger" depart="150.00" departLane="best" departSpeed="max">
        <route edges="27994998#0 27446422#4 27446422#5 27446422#6 27446422#7 27446362#3 27446362#4 27446362#5 -442048037#1 -442048037#0 27553995#0 27553995#1 27553995#2 27553995#3 27553995#4 27553995#5"/>
    </vehicle>
    <vehicle id="16" type="passenger" depart="160.00" departLane="best" departSpeed="max">
        <route edges="28187223#1 28187223#2 -23075471#9 -23075471#8 -23075471#7 -23075471#6 27554009#5 27554009#7 1203845399#0 1203845399#1 1203845399#2 1347259031#0 55674051#0 55674051#1 27446407#0"/>
    </vehicle>
    <vehicle id="17" type="passenger" depart="170.00" departLane="best" departSpeed="max">
        <route edges="27446487 27446481#2 27446481#3 27446481#4 27446422#1 27446422#2 27446422#3 27446422#4 27446422#5 27446422#6 27446422#7 27446362#3 27446362#4 27446362#5 -442048037#1 -780909659 -1256457841#0"/>
    </vehicle>
    <vehicle id="18" type="passenger" depart="180.00" departLane="best" departSpeed="max">
        <route edges="-27672429#5 -27672429#4 -27672429#3 -27672429#2 -27673056 -1219765429#3 -1219765429#2 -27554009#8 -27554009#5 -23075471#5 -23075471#4 -23075471#2 1387993944#0 27553995#0 27553995#1 27553995#2 27553995#3 27553995#4 40631941#0 40631941#1 -40631944"/>
    </vehicle>
    <vehicle id="19" type="passenger" depart="190.00" departLane="best" departSpeed="max">
        <route edges="-1160119346 23075313#4 23075313#5 23075313#6 23075313#7 23075313#8 23075314#0 23075314#2 23075314#3 23075314#4 23075314#5 23075314#6 1012672486 27446397#1 53748801#0 -27994976 27446407#6 27446407#7 -27994955#2 -27994955#1 27446422#3 -27994998#0"/>
    </vehicle>
    <vehicle id="20" type="passenger" depart="200.00" departLane="best" departSpeed="max">
        <route edges="-1219765433#2 -1219765433#1 -1219765433#0 -1219765432#1 -1219765432#0 -1219765429#3 -1219765429#2 1215841694#6 27672785#1 -32425578#2"/>
    </vehicle>
    <vehicle id="21" type="passenger" depart="210.00" departLane="best" departSpeed="max">
        <route edges="23075471#6 -23075471#6 -23075471#5 -23075471#4 -23075471#2 1387993944#0 442048037#0 442048037#1 38042290#0 1102789602"/>
    </vehicle>
    <vehicle id="22" type="passenger" depart="220.00" departLane="best" departSpeed="max">
        <route edges="-28187232 -28187223#3 -23075471#9 -23075471#8 -23075471#7 -23075471#6 -23075471#5 -23075471#4 -23075471#2 1387993944#0 442048037#0 442048037#1 -27446362#5 -27446362#4 -27446362#3 -27446422#7 -27446422#6 -27446422#5 -27446422#4 -27446422#3 -27994955#0"/>
    </vehicle>
    <vehicle id="23" type="passenger" depart="230.00" departLane="best" departSpeed="max">
        <route edges="23075494 23075313#3 23075313#4 23075313#5 23075313#6 23075313#7 23075313#8 23075314#0 23075314#2 23075314#3 23075314#4 23075314#5 23075314#6 1012672486 27446397#1 53748801#0 -27994976 27446407#6 27446407#7 27446407#8 -27446481#5 -27446481#4 -27446481#3 -27446481#2 -1102789665#2 1102789666 27446481#3"/>
    </vehicle>
    <vehicle id="24" type="passenger" depart="240.00" departLane="best" departSpeed="max">
        <route edges="-27446407#0 55674051#2 23075471#0 23075471#3 23075471#5 -27554009#4 -27554009#3 -27554009#2 648180564#0 648180564#1 27708778#0 27707953"/>
    </vehicle>
    <vehicle id="25" type="passenger" depart="250.00" departLane="best" departSpeed="max">
        <route edges="-23075471#8 -23075471#7 -23075471#6 -23075471#5 -23075471#4 -23075471#2 1387993944#0 442048037#0 442048037#1 -27446362#5 -27446362#4 -27446362#3 -27446362#2 28113619#0 -28113640#0 1102789630"/>
    </vehicle>
    <vehicle id="26" type="passenger" depart="260.00" departLane="best" departSpeed="max">
        <route edges="780428219 1270623441#0 1219765429#0 1219765429#3 27673056 27672429#1 27672429#3 27672429#4 27672429#5 27672429#6 27672429#7"/>
    </vehicle>
    <vehicle id="27" type="passenger" depart="270.00" departLane="best" departSpeed="max">
        <route edges="1227722341 53748801#0 53748801#1 -27994974 -27446407#4 -27446407#3 -27446407#2 -27446407#0 55674051#2 23075471#0 23075471#3 23075471#5 27554009#5 27554009#7 1203845399#0 1203845399#1 1203845399#2 1012672492#0 27673041#1 27673041#2 27673041#4 1391305618#0 1391305618#1 1391305618#2 27672920#1"/>
    </vehicle>
    <vehicle id="28" type="passenger" depart="280.00" departLane="best" departSpeed="max">
        <route edges="28113227#0 28113227#1 28113227#2 152162978#0 152162978#1 152162978#2 152162978#3 152162978#4 152162978#5 23075313#8 23075314#0 23075314#2 23075314#3 23075314#4 23075314#5 23075314#6 1012672486 27446397#1 53748801#0 -27994976 27446407#6 27446407#7 -27994955#2 27994955#2"/>
    </vehicle>
    <vehicle id="29" type="passenger" depart="290.00" departLane="best" departSpeed="max">
        <route edges="-27672429#6 -27672429#5 -27672429#4 -27672429#3 -27672429#2 780428222#0 780428222#2 780428222#4 780428222#5 -27673182#2 -1219765433#1"/>
    </vehicle>
    <vehicle id="30" type="passenger" depart="300.00" departLane="best" departSpeed="max">
        <route edges="-27791238#2 27446422#2 27994955#1 27994955#2 -27446407#7 -27446407#6 -27446407#5 -27446407#4 -27446407#3 -27446407#2 -27446407#0 55674051#2 23075471#0 23075471#3 32425477#0 -32425477#0"/>
    </vehicle>
    <vehicle id="31" type="passenger" depart="310.00" departLane="best" departSpeed="max">
        <route edges="-27553995#5 40631941#0 40631941#1 40631941#2 553988546#1 553988546#2 553988546#3 553988543"/>
    </vehicle>
    <vehicle id="32" type="passenger" depart="320.00" departLane="best" departSpeed="max">
        <route edges="32425555#0 28187223#1 28187223#2 -23075471#9 -23075471#8 -23075471#7 -23075471#6 -23075471#5 -23075471#4 -23075471#2 1387993944#0 442048037#0 442048037#1 -27446362#5 -27446362#4 -27446362#3 -27446422#7 -27446422#6 -27446422#5 28113670#1 -53748802#3"/>
    </vehicle>
    <vehicle id="33" type="passenger" depart="330.00" departLane="best" departSpeed="max">
        <route edges="259484456#0 23075314#2 23075314#3 23075314#4 23075314#5 23075314#6 1012672486 27446397#1 53748801#0 -27994976 27446407#6 27446407#7 -27994955#2 1102789692"/>
    </vehicle>
    <vehicle id="34" type="passenger" depart="340.00" departLane="best" departSpeed="max">
        <route edges="442048037#1 -27446362#5 -27446362#4 -27446362#3 -27446362#2 -27446362#1 -27446362#0 -27446407#0 55674051#2 23075471#0 32425481#0 32425481#1 1215841694#3 1215841694#4 1219765429#0 1219765429#3 1219765432#0 1219765432#1 1219765433#0 1219765433#1 1219765433#2"/>
    </vehicle>
    <vehicle id="35" type="passenger" depart="350.00" departLane="best" departSpeed="max">
        <route edges="-27673164#2 -1219765433#0 -1219765432#1 -1219765432#0 -1219765429#3 -1219765429#2 1203845399#0 1203845399#1 1203845399#2 1347259031#0 55674051#0 55674051#1 27446407#0 27446362#0 27446362#1 28113619#0 -28113640#0 -28113616"/>
    </vehicle>
    <vehicle id="36" type="passenger" depart="360.00" departLane="best" departSpeed="max">
        <route edges="1227722341 53748801#0 53748801#1 -27994974 -27446407#4 -27446407#3 -27446407#2 -27446407#0 55674051#2 23075471#0 23075471#3 23075471#5 23075471#6 23075471#7 23075471#8 23075471#9 -28187223#2"/>
    </vehicle>
    <vehicle id="37" type="passenger" depart="370.00" departLane="best" departSpeed="max">
        <route edges="1284104910#0 -40631136#1 40631136#0"/>
    </vehicle>
    <vehicle id="38" type="passenger" depart="380.00" departLane="best" departSpeed="max">
        <route edges="-32425555#1 -32425555#0 27554009#3 27554009#4 27554009#5 27554009#7 1203845399#0 1203845399#1 1203845399#2 1347259031#0 53748800#0 -27994972#1 53748801#3 53748801#4 -27994960"/>
    </vehicle>
    <vehicle id="39" type="passenger" depart="390.00" departLane="best" departSpeed="max">
        <route edges="87370762#0 27673375#1 -27672429#5 -27672429#4 -27672429#3 -27672429#2 -27673056 -1219765429#3 -1219765429#2 -27554009#8 -27554009#5 -27554009#4 -27554009#3 -27554009#2 453955867#2 698590793#1 698590793#2 698590793#3 1393191209 23075281#0 23075281#1"/>
    </vehicle>
    <vehicle id="40" type="passenger" depart="400.00" departLane="best" departSpeed="max">
        <route edges="-1219765430 -1219765427#1 1203845399#1 1203845399#2 1347259031#0 55674051#0 55674051#1 27446407#0 27446362#0 27446362#1 27446362#2 27446362#3 27446362#4 27446362#5 -442048037#1 -780909659 -1256457841#0"/>
    </vehicle>
    <vehicle id="41" type="passenger" depart="410.00" departLane="best" departSpeed="max">
        <route edges="-1256457841#1 780909659 -442048037#0 1387993944#2 698590793#3 698590793#4 1298979622#0 1393190842 27554009#1 27554009#3 27554009#4"/>
    </vehicle>
    <vehicle id="42" type="passenger" depart="420.00" departLane="best" departSpeed="max">
        <route edges="27707923#1 995260015 648180564#1 1109948510"/>
    </vehicle>
    <vehicle id="43" type="passenger" depart="430.00" departLane="best" departSpeed="max">
        <route edges="-1102793579 -53748802#2 -53748802#1 27446422#6 -28113640#1 -28113640#0 1102789630"/>
    </vehicle>
    <vehicle id="44" type="passenger" depart="440.00" departLane="best" departSpeed="max">
        <route edges="780798297#0 1013624228#0 1013624228#1 1013624228#2 1013624228#3 1013624228#4 1013624228#5 23075332#0"/>
    </vehicle>
    <vehicle id="45" type="passenger" depart="450.00" departLane="best" departSpeed="max">
        <route edges="648155176#2 1298979622#0 1393190842 27554009#1 32425555#0 32425555#1"/>
    </vehicle>
    <vehicle id="46" type="passenger" depart="460.00" departLane="best" departSpeed="max">
        <route edges="-1102789601 -27446362#4 -27446362#3 -27446362#2 -27446362#1 -27446362#0 -27446407#0 55674051#2 23075471#0 23075471#3 23075471#5 27554009#5 27554009#7 1203845399#0 1203845399#1 1203845399#2 1012672492#0 27673041#1 27673041#2 27673041#4 1391305618#0 1391305618#1 1391305618#2 23075314#0 23075314#2 27707665#0"/>
    </vehicle>
    <vehicle id="47" type="passenger" depart="470.00" departLane="best" departSpeed="max">
        <route edges="27446422#0 27446481#5 -27446407#8 -27446407#7 -27446407#6 -27446407#5 -27446407#4 -27446407#3 -27446407#2 -27446407#0 55674051#2 23075471#0 32425481#0 32425481#1 1215841694#3 1215841694#4 1219765429#0 1219765429#3 27673056 27672429#1 27672429#3 27672429#4 27672429#5 27672429#6 23075332#10 23075332#12"/>
    </vehicle>
    <vehicle id="48" type="passenger" depart="480.00" departLane="best" departSpeed="max">
        <route edges="-27673375#5 27672429#6 27672429#7"/>
    </vehicle>
    <vehicle id="49" type="passenger" depart="490.00" departLane="best" departSpeed="max">
        <route edges="-53748802#0 -28113619#0 -27446362#1 -27446362#0 -27446407#0 55674051#2 23075471#0 23075471#3 23075471#5 27554009#5 27554009#7 1203845399#0 1203845399#1 1203845399#2 1012672492#0 27673041#1 27673041#2 27673041#4 1391305618#0 1391305618#1 1391305618#2 780798297#0 1013624228#0 1013624228#1 1013624228#2 1013624228#3 1013624228#4 1013624228#5 553988548#0"/>
    </vehicle>
    <vehicle id="50" type="passenger" depart="500.00" departLane="best" departSpeed="max">
        <route edges="32425555#0 28187223#1 28187223#2 28187223#3 -28187223#3"/>
    </vehicle>
    <vehicle id="51" type="passenger" depart="510.00" departLane="best" departSpeed="max">
        <route edges="1013624228#5 23075332#0 23075332#4 23075332#7 -27672429#6 -27672429#5 -40633859#4 -40633859#2 -27673151#5"/>
    </vehicle>
    <vehicle id="52" type="passenger" depart="520.00" departLane="best" departSpeed="max">
        <route edges="40633859#5 152162978#0 152162978#1 152162978#2 152162978#3 152162978#4 152162978#5 23075313#8 23075314#0 23075314#2 23075314#3 23075314#4 23075314#5 23075314#6 553708934#0 553708934#1 553708934#2 553708934#3 1109973246#0 1347259031#0 55674051#0 55674051#1 27446407#0 27446362#0 27446362#1 27446362#2 27446362#3 27446362#4 27446362#5 38042290#0 38042290#1 38042290#2"/>
    </vehicle>
    <vehicle id="53" type="passenger" depart="530.00" departLane="best" departSpeed="max">
        <route edges="-27708771#1 -27708771#0 995260015 453955867#1 27554009#1 27554009#3 27554009#4 27554009#5 27554009#7 1219765429#0 1219765429#3 27673056 27672429#1 27672429#3 27672429#4 27672429#5 27672429#6 27672429#7"/>
    </vehicle>
    <vehicle id="54" type="passenger" depart="540.00" departLane="best" departSpeed="max">
        <route edges="190884434 553708934#0 553708934#1 553708934#2 553708934#3 1109973246#0 1347259031#0 55674051#0 55674051#1 27446407#0 27446362#0 27446362#1 27446362#2 27446362#3 27446362#4 27446362#5 -442048037#1 -442048037#0 27553995#0 27553995#1 27553995#2 27553995#3 27553995#4 -27553995#4"/>
    </vehicle>
    <vehicle id="55" type="passenger" depart="550.00" departLane="best" departSpeed="max">
        <route edges="27673041#4 27554025 1274862321#0 1274862321#2 1274862321#4 1274862321#5 1274862321#6 1274862321#7 1274862321#8 23075332#4"/>
    </vehicle>
    <vehicle id="56" type="passenger" depart="560.00" departLane="best" departSpeed="max">
        <route edges="27673375#1 27672429#6 23075332#10 23075332#12"/>
    </vehicle>
    <vehicle id="57" type="passenger" depart="570.00" departLane="best" departSpeed="max">
        <route edges="32425585#0 39683086#3 28187223#5 310658031"/>
    </vehicle>
    <vehicle id="58" type="passenger" depart="580.00" departLane="best" departSpeed="max">
        <route edges="-27708778#2 -27708046#2 -27708771#0 995260015 453955867#1 27554009#1 27554009#3 27554009#4 27554009#5 27554009#7 1203845399#0 1203845399#1 1203845399#2 1012672492#0 27673041#1 27673041#2 27673041#4 27554025 1274862321#0 1274862321#2 1274862321#4 1274862321#5 -1350364777"/>
    </vehicle>
    <vehicle id="59" type="passenger" depart="590.00" departLane="best" departSpeed="max">
        <route edges="32425578#1 -32425578#2 -32425578#0 -23075471#7 -23075471#6 -23075471#5 -23075471#4 -23075471#2 1387993944#0 27553995#0 27553995#1 -553988543 553988546#4"/>
    </vehicle>
    <vehicle id="60" type="passenger" depart="600.00" departLane="best" departSpeed="max">
        <route edges="-1160119346 23075313#4 23075313#5 23075313#6 23075313#7 -152162978#5 -152162978#4 -152162978#3 -152162978#2 -152162978#1 -152162978#0 1274862321#6 1274862321#7 1274862321#8 1274862321#9"/>
    </vehicle>
    <vehicle id="61" type="passenger" depart="610.00" departLane="best" departSpeed="max">
        <route edges="-1102819050 27672508#4 1219765430 -1219765429#3 -1219765429#2 -27554009#8 -27554009#5 -27554009#4 -27554009#3 -27554009#2 648180564#0 648180564#1 27708778#0 27708778#1 27708778#2"/>
    </vehicle>
    <vehicle id="62" type="passenger" depart="620.00" departLane="best" departSpeed="max">
        <route edges="27673139#0 1284104910#4 1284104910#5 -27673056 -1219765429#3 -1219765429#2 1203845399#0 1203845399#1 1203845399#2 1347259031#0 55674051#0 55674051#1 27446407#0 27446407#2 27446407#3 27446407#4 27446407#5 27446407#6 27446407#7 27446407#8 -27446481#5 -27446481#4 -27446481#3 -27446481#2 -27446481#0"/>
    </vehicle>
    <vehicle id="63" type="passenger" depart="630.00" departLane="best" departSpeed="max">
        <route edges="-553988550 23075313#5 23075313#6 23075313#7 23075313#8 23075314#0 23075314#2 23075314#3 23075314#4 23075314#5 23075314#6 553708934#0 553708934#1 553708934#2 553708934#3 1109973246#0 1215841694#1 -32425481#1 -32425481#0 23075471#3 23075471#5 23075471#6 23075471#7 23075471#8 23075471#9 23075471#10"/>
    </vehicle>
    <vehicle id="64" type="passenger" depart="640.00" departLane="best" departSpeed="max">
        <route edges="-27673182#2 -1219765433#1 -1219765433#0 -1219765432#1 -1219765432#0 -1219765429#3 -1219765429#2 1203845399#0 1203845399#1 1203845399#2 1347259031#0 55674051#0 55674051#1 27446407#0 27446362#0 27446362#1 27446362#2 27446362#3 27446362#4 27446362#5 38042290#0 38042290#1 38042290#2"/>
    </vehicle>
    <vehicle id="65" type="passenger" depart="650.00" departLane="best" departSpeed="max">
        <route edges="-39683086#4 -28187223#4 -28187223#3 -23075471#9 -23075471#8 -23075471#7 -23075471#6 -23075471#5 -23075471#4 -23075471#2 1387993944#0 442048037#0 442048037#1 -27446362#5 -27446362#4 -27446362#3 -27446422#7 -27446422#6 -27446422#5 -27446422#4 -27446422#3 -27994955#0"/>
    </vehicle>
    <vehicle id="66" type="passenger" depart="660.00" departLane="best" departSpeed="max">
        <route edges="1215841694#3 1215841694#4 -27554009#8 -27554009#5 -27554009#4 -27554009#3 -27554009#2 648180564#0 648180564#1 27708778#0 27707953"/>
    </vehicle>
    <vehicle id="67" type="passenger" depart="670.00" departLane="best" departSpeed="max">
        <route edges="-27446422#6 53748802#1 -494158014"/>
    </vehicle>
    <vehicle id="68" type="passenger" depart="680.00" departLane="best" departSpeed="max">
        <route edges="780428222#5 -27673182#2 -1219765433#1 -1219765433#0 -1219765431#2 27672602#1"/>
    </vehicle>
    <vehicle id="69" type="passenger" depart="690.00" departLane="best" departSpeed="max">
        <route edges="-1274862321#8 -1274862321#7 -1274862321#6 152162978#0 152162978#1 152162978#2 152162978#3 152162978#4 152162978#5 23075313#8 23075314#0 23075314#2 23075314#3 23075314#4 23075314#5 23075314#6 1012672486 27446397#1 53748801#0 -27994976 27446407#6 27446407#7 -27994955#2 -27994955#1 27446422#3 -27994998#0"/>
    </vehicle>
    <vehicle id="70" type="passenger" depart="700.00" departLane="best" departSpeed="max">
        <route edges="-28104657#0 1013624228#5 23075332#0 -1274862321#8 -1274862321#7 -1274862321#6 152162978#0 152162978#1 152162978#2 152162978#3 152162978#4 152162978#5 23075313#8 23075314#0 23075314#2 23075314#3 23075314#4 23075314#5 23075314#6 1012672486 27446397#1 53748801#0 -27994976 27446407#6 27446407#7 27446407#8 27446407#9"/>
    </vehicle>
    <vehicle id="71" type="passenger" depart="710.00" departLane="best" departSpeed="max">
        <route edges="-27672429#7 -27672429#6 -27672429#5 -27672429#4 -27672429#3 -27672429#2 -27673056 -1219765429#3 -1219765429#2 1203845399#0 1203845399#1 1203845399#2 1347259031#0 53748800#0 -27994972#1 53748801#3 -27994970"/>
    </vehicle>
    <vehicle id="72" type="passenger" depart="720.00" departLane="best" departSpeed="max">
        <route edges="-1102819050 27672508#4 1219765430 27673056 27672429#1 27672429#3"/>
    </vehicle>
    <vehicle id="73" type="passenger" depart="730.00" departLane="best" departSpeed="max">
        <route edges="-27672429#6 -27672429#5 -27672429#4 -27672429#3 -27672429#2 -27673056 -1219765429#3 -1219765429#2 -27554009#8 -27554009#5 -23075471#5 -23075471#4 -23075471#2 1387993944#0 27553995#0 27553995#1 27553995#2 27553995#3 27553995#4 40631941#0 40631943"/>
    </vehicle>
    <vehicle id="74" type="passenger" depart="740.00" departLane="best" departSpeed="max">
        <route edges="28113670#2 -28113670#2 -28113670#1 27446422#5 27446422#6 27446422#7 -27446362#2 -27446362#1 -27446362#0 -27446407#0 55674051#2 23075471#0 23075471#3 23075471#5 27554009#5 27554009#7 1203845399#0 1203845399#1 1203845399#2 1012672492#0 27673041#1 27673041#2 27673041#4 1391305618#0 1391305618#1 1391305618#2 23075314#0 23075314#2 23075314#3 23075314#4 23075314#5 23075314#6 -190884434"/>
    </vehicle>
    <vehicle id="75" type="passenger" depart="750.00" departLane="best" departSpeed="max">
        <route edges="-27672429#7 -27672429#6 -27672429#5 -27672429#4 -27672429#3 -27672429#2 -27673056 -1219765429#3 -1219765429#2 1215841694#6 27672785#1 27672785#2"/>
    </vehicle>
    <vehicle id="76" type="passenger" depart="760.00" departLane="best" departSpeed="max">
        <route edges="-27553995#5 40631941#0 40631941#1 40631941#2 553988546#1 553988546#2 553988546#3 553988546#4 553988546#5 -27446362#5 -27446362#4 -27446362#3 -27446422#7 -27446422#6 -27446422#5 -27446422#4 -27446422#3 -27446422#2 -27446422#1 -27446481#4 -27446481#3 -27446481#2 -27446481#0"/>
    </vehicle>
    <vehicle id="77" type="passenger" depart="770.00" departLane="best" departSpeed="max">
        <route edges="553707765 23075313#1 23075313#2 23075313#3 23075313#4 23075313#5 23075313#6 23075313#7 23075313#8 23075314#0 23075314#2 23075314#3 23075314#4 23075314#5 23075314#6 1012672486 27446392"/>
    </vehicle>
    <vehicle id="78" type="passenger" depart="780.00" departLane="best" departSpeed="max">
        <route edges="-553988550 23075313#5 23075313#6 23075313#7 23075313#8 23075314#0 23075314#2 23075314#3 23075314#4 23075314#5 23075314#6 1012672486 27446397#1 53748801#0 -27994976 27446407#6 27446407#7 -27994955#2 -27994955#1 27446422#3 27994998#1"/>
    </vehicle>
    <vehicle id="79" type="passenger" depart="790.00" departLane="best" departSpeed="max">
        <route edges="27994955#0 27994955#1 27994955#2 -27446407#7 -27446407#6 -27446407#5 -27446407#4 -27446407#3 -27446407#2 -27446407#0 55674051#2 23075471#0 32425481#0 32425481#1 1215841694#3 1215841694#4 1219765429#0 1219765429#3 27673056 27672429#1 27672429#3 27672429#4 27672429#5 -27673375#2"/>
    </vehicle>
    <vehicle id="80" type="passenger" depart="800.00" departLane="best" departSpeed="max">
        <route edges="-39683086#4 -28187223#4 -28187223#3 -23075471#9 -23075471#8 -23075471#7 -23075471#6 -23075471#5 -23075471#4 -23075471#2 1387993944#0 442048037#0 -780909659 1256457841#1"/>
    </vehicle>
    <vehicle id="81" type="passenger" depart="810.00" departLane="best" departSpeed="max">
        <route edges="27672508#2 27672508#3 27672508#4 1219765430 -1219765429#3 -1219765429#2 1215841694#6 27672785#1 27672785#2 27672785#3 27672785#4"/>
    </vehicle>
    <vehicle id="82" type="passenger" depart="820.00" departLane="best" departSpeed="max">
        <route edges="780428219 1270623441#0 1203845399#0 1203845399#1 1203845399#2 1012672492#0 27673041#1 27673041#2 27673041#4 1391305618#0 1391305618#1 1391305618#2 23075314#0 -259484456#1"/>
    </vehicle>
    <vehicle id="83" type="passenger" depart="830.00" departLane="best" departSpeed="max">
        <route edges="-32425555#1 -32425555#0 27554009#3 27554009#4 27554009#5 27554009#7 1203845399#0 1203845399#1 1203845399#2 1012672492#0 27673041#1 27673041#2 27673041#4 1391305618#0 1391305618#1 1391305618#2 780798297#0 1013624228#0 1013624228#1 1013624228#2 1013624228#3 1013624228#4"/>
    </vehicle>
    <vehicle id="84" type="passenger" depart="840.00" departLane="best" departSpeed="max">
        <route edges="28187223#1 28187223#2 -23075471#9 -23075471#8 -23075471#7 -23075471#6 -23075471#5 -23075471#4 -23075471#2 1387993944#0 442048037#0 442048037#1 -27446362#5 -27446362#4 -27446362#3 -27446362#2 28113619#0 -28113640#0"/>
    </vehicle>
    <vehicle id="85" type="passenger" depart="850.00" departLane="best" departSpeed="max">
        <route edges="-27446412 -27446407#6 -27446407#5 -27446407#4 -27446407#3 -27446407#2 -27446407#0 55674051#2 23075471#0 32425481#0 32425481#1 1215841694#3 1215841694#4 1219765429#0 1219765429#3 1219765432#0"/>
    </vehicle>
    <vehicle id="86" type="passenger" depart="860.00" departLane="best" departSpeed="max">
        <route edges="-39683086#4 -39683086#3 -32425585#0"/>
    </vehicle>
    <vehicle id="87" type="passenger" depart="870.00" departLane="best" departSpeed="max">
        <route edges="-27672602#1 -1219765431#1 1270623441#0 1203845399#0 1203845399#1 1203845399#2 1347259031#0 53748800#0 53748800#1 27446397#1 53748801#0 53748801#1 53748801#2"/>
    </vehicle>
    <vehicle id="88" type="passenger" depart="880.00" departLane="best" departSpeed="max">
        <route edges="-40631943 -40631941#0 -27553995#4 -27553995#3 -27553995#2 -27553995#1 -27553995#0 1387993944#2 698590793#3 698590793#4 1298979622#0 1393190842 27554009#1 27554009#3 27554009#4 23075471#6 23075471#7 32425578#0"/>
    </vehicle>
    <vehicle id="89" type="passenger" depart="890.00" departLane="best" departSpeed="max">
        <route edges="1219765433#1 -1219765433#1 -1219765433#0 -1219765432#1 -1219765432#0 -1219765429#3 -1219765429#2 1203845399#0 1203845399#1 1203845399#2 1347259031#0 55674051#0 55674051#1 27446407#0 27446362#0 27446362#1 27446362#2 27446362#3 27446362#4 27446362#5 -442048037#1 -780909659 -1256457841#0"/>
    </vehicle>
    <vehicle id="90" type="passenger" depart="900.00" departLane="best" departSpeed="max">
        <route edges="995260015 453955867#1 27554009#1 27554009#3 27554009#4 -23075471#5 -23075471#4 32425481#0"/>
    </vehicle>
    <vehicle id="91" type="passenger" depart="910.00" departLane="best" departSpeed="max">