<?xml version="1.0" encoding="UTF-8"?>

<!-- generated on 2025-10-29 01:33:31.008382 by Eclipse SUMO randomTrips.py UNKNOWN
<configuration>
    <net-file value="mg_road.net.xml"/>
    <output-trip-file value="mg_road.trips.xml"/>
    <trip-attributes value="departLane=&quot;best&quot; departSpeed=&quot;max&quot;"/>
    <vehicle-class value="passenger"/>
    <fringe-factor value="10"/>
    <end value="1000.0"/>
    <period value="10.0"/>
</configuration>
-->

<routes xmlns:xsi="http://www.w3.org/2001/XMLSchema-instance" xsi:noNamespaceSchemaLocation="http://sumo.dlr.de/xsd/routes_file.xsd">
    <vType id="passenger" vClass="passenger"/>
    <trip id="0" depart="0.00" from="-213087098#2" to="1014276813#1" departLane="best" departSpeed="max" type="passenger"/>
    <trip id="1" depart="10.00" from="328758433#0" to="263812623#0" departLane="best" departSpeed="max" type="passenger"/>
    <trip id="2" depart="20.00" from="-1014276813#1" to="1014276813#1" departLane="best" departSpeed="max" type="passenger"/>
    <trip id="3" depart="30.00" from="124316745#12" to="172920292#0" departLane="best" departSpeed="max" type="passenger"/>
    <trip id="4" depart="40.00" from="-995154329#1" to="-36332256#2" departLane="best" departSpeed="max" type="passenger"/>
    <trip id="5" depart="50.00" from="638541495#0" to="1125542419#0" departLane="best" departSpeed="max" type="passenger"/>
    <trip id="6" depart="60.00" from="-1093707706" to="-1349935083" departLane="best" departSpeed="max" type="passenger"/>
    <trip id="7" depart="70.00" from="107215079#0" to="172920292#0" departLane="best" departSpeed="max" type="passenger"/>
    <trip id="8" depart="80.00" from="-1089717992" to="1089717992" departLane="best" departSpeed="max" type="passenger"/>
    <trip id="9" depart="90.00" from="-1093707706" to="1093707706" departLane="best" departSpeed="max" type="passenger"/>
    <trip id="10" depart="100.00" from="124316745#0" to="1125542419#3" departLane="best" departSpeed="max" type="passenger"/>
    <trip id="11" depart="110.00" from="107215079#0" to="1014276813#1" departLane="best" departSpeed="max" type="passenger"/>
    <trip id="12" depart="120.00" from="-213087098#2" to="553253473#0" departLane="best" departSpeed="max" type="passenger"/>
    <trip id="13" depart="130.00" from="-1136281758#5" to="1136281758#0" departLane="best" departSpeed="max" type="passenger"/>
    <trip id="14" depart="140.00" from="1166322819#0" to="263812623#0" departLane="best" departSpeed="max" type="passenger"/>
    <trip id="15" depart="150.00" from="36967442#0" to="48166762#22" departLane="best" departSpeed="max" type="passenger"/>
    <trip id="16" depart="160.00" from="-172920292#1" to="553253473#0" departLane="best" departSpeed="max" type="passenger"/>
    <trip id="17" depart="170.00" from="124316745#9" to="1136281758#5" departLane="best" departSpeed="max" type="passenger"/>
    <trip id="18" depart="180.00" from="544759838#0" to="1224538501" departLane="best" departSpeed="max" type="passenger"/>
    <trip id="19" depart="190.00" from="-213087098#2" to="1089717992" departLane="best" departSpeed="max" type="passenger"/>
    <trip id="20" depart="200.00" from="1196514128#0" to="542070647#0" departLane="best" departSpeed="max" type="passenger"/>
    <trip id="21" depart="210.00" from="995154329#2" to="1308654713" departLane="best" departSpeed="max" type="passenger"/>
    <trip id="22" depart="220.00" from="995154329#1" to="172903807#0" departLane="best" departSpeed="max" type="passenger"/>
    <trip id="23" depart="230.00" from="638541495#0" to="542070644#0" departLane="best" departSpeed="max" type="passenger"/>
    <trip id="24" depart="240.00" from="-1014276813#1" to="325833350#0" departLane="best" departSpeed="max" type="passenger"/>
    <trip id="25" depart="250.00" from="27946046#0" to="172920292#0" departLane="best" departSpeed="max" type="passenger"/>
    <trip id="26" depart="260.00" from="-213087098#2" to="213087110#0" departLane="best" departSpeed="max" type="passenger"/>
    <trip id="27" depart="270.00" from="-1093707706" to="1224538501" departLane="best" departSpeed="max" type="passenger"/>
    <trip id="28" depart="280.00" from="1110192329#0" to="553253473#0" departLane="best" departSpeed="max" type="passenger"/>
    <trip id="29" depart="290.00" from="111997552#0" to="-995154329#0" departLane="best" departSpeed="max" type="passenger"/>
    <trip id="30" depart="300.00" from="544759838#0" to="542070644#0" departLane="best" departSpeed="max" type="passenger"/>
    <trip id="31" depart="310.00" from="-213087110#1" to="213087110#0" departLane="best" departSpeed="max" type="passenger"/>
    <trip id="32" depart="320.00" from="124316745#0" to="-36332256#2" departLane="best" departSpeed="max" type="passenger"/>
    <trip id="33" depart="330.00" from="-213087110#1" to="-111997552#1" departLane="best" departSpeed="max" type="passenger"/>
    <trip id="34" depart="340.00" from="36332256#0" to="-36332256#2" departLane="best" departSpeed="max" type="passenger"/>
    <trip id="35" depart="350.00" from="1113076998#0" to="172920292#0" departLane="best" departSpeed="max" type="passenger"/>
    <trip id="36" depart="360.00" from="-213087098#2" to="542070644#0" departLane="best" departSpeed="max" type="passenger"/>
    <trip id="37" depart="370.00" from="1101271052#0" to="1308654713" departLane="best" departSpeed="max" type="passenger"/>
    <trip id="38" depart="380.00" from="-1093707706" to="1014276813#1" departLane="best" departSpeed="max" type="passenger"/>
    <trip id="39" depart="390.00" from="-172920292#1" to="-36332256#2" departLane="best" departSpeed="max" type="passenger"/>
    <trip id="40" depart="400.00" from="638541495#0" to="172920292#0" departLane="best" departSpeed="max" type="passenger"/>
    <trip id="41" depart="410.00" from="1113076998#0" to="48166762#22" departLane="best" departSpeed="max" type="passenger"/>
    <trip id="42" depart="420.00" from="-1093707706" to="1166571294" departLane="best" departSpeed="max" type="passenger"/>
    <trip id="43" depart="430.00" from="1094100012#0" to="1224538501" departLane="best" departSpeed="max" type="passenger"/>
    <trip id="44" depart="440.00" from="328758433#0" to="263812623#0" departLane="best" departSpeed="max" type="passenger"/>
    <trip id="45" depart="450.00" from="705023783#0" to="-1349935083" departLane="best" departSpeed="max" type="passenger"/>
    <trip id="46" depart="460.00" from="-1224538501" to="1224538501" departLane="best" departSpeed="max" type="passenger"/>
    <trip id="47" depart="470.00" from="-213087098#2" to="544761380#0" departLane="best" departSpeed="max" type="passenger"/>
    <trip id="48" depart="480.00" from="1101271052#2" to="542070644#0" departLane="best" departSpeed="max" type="passenger"/>
    <trip id="49" depart="490.00" from="995154329#2" to="542070643#3" departLane="best" departSpeed="max" type="passenger"/>
    <trip id="50" depart="500.00" from="638541495#0" to="544761380#0" departLane="best" departSpeed="max" type="passenger"/>
    <trip id="51" depart="510.00" from="36967442#0" to="-36332257#0" departLane="best" departSpeed="max" type="passenger"/>
    <trip id="52" depart="520.00" from="1113076998#0" to="1014276813#1" departLane="best" departSpeed="max" type="passenger"/>
    <trip id="53" depart="530.00" from="107215079#0" to="705023783#0" departLane="best" departSpeed="max" type="passenger"/>
    <trip id="54" depart="540.00" from="-213087098#2" to="48166762#22" departLane="best" departSpeed="max" type="passenger"/>
    <trip id="55" depart="550.00" from="638541495#0" to="995154329#1" departLane="best" departSpeed="max" type="passenger"/>
    <trip id="56" depart="560.00" from="1166322819#0" to="325833350#0" departLane="best" departSpeed="max" type="passenger"/>
    <trip id="57" depart="570.00" from="111997552#0" to="542070644#0" departLane="best" departSpeed="max" type="passenger"/>
    <trip id="58" depart="580.00" from="-1136281758#5" to="553253473#0" departLane="best" departSpeed="max" type="passenger"/>
    <trip id="59" depart="590.00" from="-1093707705#0" to="-995154329#3" departLane="best" departSpeed="max" type="passenger"/>
    <trip id="60" depart="600.00" from="1196514128#0" to="263812623#0" departLane="best" departSpeed="max" type="passenger"/>
    <trip id="61" depart="610.00" from="-172920292#1" to="-1349935083" departLane="best" departSpeed="max" type="passenger"/>
    <trip id="62" depart="620.00" from="111997552#0" to="553253473#0" departLane="best" departSpeed="max" type="passenger"/>
    <trip id="63" depart="630.00" from="-172920292#1" to="1136281758#5" departLane="best" departSpeed="max" type="passenger"/>
    <trip id="64" depart="640.00" from="172947338#1" to="1093707706" departLane="best" departSpeed="max" type="passenger"/>
    <trip id="65" depart="650.00" from="-213087110#1" to="464465211#0" departLane="best" departSpeed="max" type="passenger"/>
    <trip id="66" depart="660.00" from="995154329#2" to="995154329#1" departLane="best" departSpeed="max" type="passenger"/>
    <trip id="67" depart="670.00" from="-213087098#2" to="544761382#0" departLane="best" departSpeed="max" type="passenger"/>
    <trip id="68" depart="680.00" from="107215079#0" to="-36332256#2" departLane="best" departSpeed="max" type="passenger"/>
    <trip id="69" depart="690.00" from="36967442#0" to="325833350#0" departLane="best" departSpeed="max" type="passenger"/>
    <trip id="70" depart="700.00" from="124316745#0" to="763293421" departLane="best" departSpeed="max" type="passenger"/>
    <trip id="71" depart="710.00" from="124316745#6" to="-1093707705#1" departLane="best" departSpeed="max" type="passenger"/>
    <trip id="72" depart="720.00" from="36967442#0" to="1093707706" departLane="best" departSpeed="max" type="passenger"/>
    <trip id="73" depart="730.00" from="-1136281758#5" to="-1349935083" departLane="best" departSpeed="max" type="passenger"/>
    <trip id="74" depart="740.00" from="-1093707706" to="172920292#0" departLane="best" departSpeed="max" type="passenger"/>
    <trip id="75" depart="750.00" from="-213087098#2" to="213087098#0" departLane="best" departSpeed="max" type="passenger"/>
    <trip id="76" depart="760.00" from="124316745#0" to="1089717992" departLane="best" departSpeed="max" type="passenger"/>
    <trip id="77" depart="770.00" from="1113076998#0" to="542070647#0" departLane="best" departSpeed="max" type="passenger"/>
    <trip id="78" depart="780.00" from="36967442#0" to="-1349935083" departLane="best" departSpeed="max" type="passenger"/>
    <trip id="79" depart="790.00" from="-1014276813#0" to="48166762#22" departLane="best" departSpeed="max" type="passenger"/>
    <trip id="80" depart="800.00" from="124316745#0" to="1089717992" departLane="best" departSpeed="max" type="passenger"/>
    <trip id="81" depart="810.00" from="328758433#0" to="172920292#0" departLane="best" departSpeed="max" type="passenger"/>
    <trip id="82" depart="820.00" from="48166762#0" to="172920292#0" departLane="best" departSpeed="max" type="passenger"/>
    <trip id="83" depart="830.00" from="-213087110#1" to="542070647#0" departLane="best" departSpeed="max" type="passenger"/>
    <trip id="84" depart="840.00" from="464465211#2" to="1014276813#1" departLane="best" departSpeed="max" type="passenger"/>
    <trip id="85" depart="850.00" from="-213087098#2" to="-1349935083" departLane="best" departSpeed="max" type="passenger"/>
    <trip id="86" depart="860.00" from="-1014276813#1" to="36332257#1" departLane="best" departSpeed="max" type="passenger"/>
    <trip id="87" depart="870.00" from="36332256#0" to="-1349935083" departLane="best" departSpeed="max" type="passenger"/>
    <trip id="88" depart="880.00" from="1113076998#0" to="1093707706" departLane="best" departSpeed="max" type="passenger"/>
    <trip id="89" depart="890.00" from="-1014276813#1" to="1014276813#1" departLane="best" departSpeed="max" type="passenger"/>
    <trip id="90" depart="900.00" from="638541495#0" to="1093707706" departLane="best" departSpeed="max" type="passenger"/>
    <trip id="91" depart="910.00" from="124316745#0" to="1136281758#5" departLane="best" departSpeed="max" type="passenger"/>
    <trip id="92" depart="920.00" from="705023783#0" to="172920292#0" departLane="best" departSpeed="max" type="passenger"/>
    <trip id="93" depart="930.00" from="638541495#0" to="-1349935083" departLane="best" departSpeed="max" type="passenger"/>
    <trip id="94" depart="940.00" from="638541495#0" to="-995154329#0" departLane="best" departSpeed="max" type="passenger"/>
    <trip id="95" depart="950.00" from="638541495#0" to="1089717992" departLane="best" departSpeed="max" type="passenger"/>
    <trip id="96" depart="960.00" from="-1093707706" to="1224538501" departLane="best" departSpeed="max" type="passenger"/>
    <trip id="97" depart="970.00" from="328758433#0" to="1101271052#0" departLane="best" departSpeed="max" type="passenger"/>
    <trip id="98" depart="980.00" from="1227562844#0" to="1308654713" departLane="best" departSpeed="max" type="passenger"/>
    <trip id="99" depart="990.00" from="-213087098#2" to="325833350#0" departLane="best" departSpeed="max" type="passenger"/>
</routes>
