<?xml version="1.0" encoding="UTF-8"?>

<!-- generated on 2025-10-29T01:33:30.525262+05:30 by Eclipse SUMO netconvert v1_24_0+1454-51d0da9119e
<netconvertConfiguration xmlns:xsi="http://www.w3.org/2001/XMLSchema-instance" xsi:noNamespaceSchemaLocation="http://sumo.dlr.de/xsd/netconvertConfiguration.xsd">

    <input>
        <osm-files value="mg_road.osm"/>
    </input>

    <output>
        <output-file value="mg_road.net.xml"/>
    </output>

    <projection>
        <proj.utm value="true"/>
    </projection>

    <processing>
        <geometry.remove value="true"/>
    </processing>

    <tls_building>
        <tls.discard-simple value="true"/>
        <tls.join value="true"/>
        <tls.guess-signals value="true"/>
    </tls_building>

    <ramp_guessing>
        <ramps.guess value="true"/>
    </ramp_guessing>

    <edge_removal>
        <keep-edges.by-vclass value="passenger"/>
        <remove-edges.isolated value="true"/>
    </edge_removal>

    <junctions>
        <junctions.join value="true"/>
    </junctions>

</netconvertConfiguration>
-->

<net version="1.20" junctionCornerDetail="5" limitTurnSpeed="5.50" xmlns:xsi="http://www.w3.org/2001/XMLSchema-instance" xsi:noNamespaceSchemaLocation="http://sumo.dlr.de/xsd/net_file.xsd">

    <location netOffset="-782263.92,-1435236.77" convBoundary="0.00,0.00,1578.16,1251.27" origBoundary="77.597500,12.934839,77.617024,12.983317" projParameter="+proj=utm +zone=43 +ellps=WGS84 +datum=WGS84 +units=m +no_defs"/>

    <type id="highway.living_street" priority="2" numLanes="1" speed="2.78" disallow="tram rail_urban rail rail_electric rail_fast ship container cable_car subway aircraft wheelchair scooter drone" oneway="0"/>
    <type id="highway.primary" priority="12" numLanes="2" speed="27.78" disallow="tram rail_urban rail rail_electric rail_fast ship container cable_car subway aircraft wheelchair scooter drone" oneway="0"/>
    <type id="highway.primary_link" priority="7" numLanes="1" speed="22.22" disallow="tram rail_urban rail rail_electric rail_fast ship container cable_car subway aircraft wheelchair scooter drone" oneway="0"/>
    <type id="highway.residential" priority="3" numLanes="1" speed="13.89" disallow="tram rail_urban rail rail_electric rail_fast ship container cable_car subway aircraft wheelchair scooter drone" oneway="0"/>
    <type id="highway.secondary" priority="11" numLanes="1" speed="27.78" disallow="tram rail_urban rail rail_electric rail_fast ship container cable_car subway aircraft wheelchair scooter drone" oneway="0"/>
    <type id="highway.tertiary" priority="10" numLanes="1" speed="22.22" disallow="tram rail_urban rail rail_electric rail_fast ship container cable_car subway aircraft wheelchair scooter drone" oneway="0"/>
    <type id="highway.unclassified" priority="4" numLanes="1" speed="13.89" disallow="tram rail_urban rail rail_electric rail_fast ship container cable_car subway aircraft wheelchair scooter drone" oneway="0"/>

    <edge id=":10001371115_0" function="internal">
        <lane id=":10001371115_0_0" index="0" disallow="tram rail_urban rail rail_electric rail_fast ship container cable_car subway aircraft wheelchair scooter drone" speed="22.22" length="12.19" shape="528.39,927.31 524.88,915.64"/>
    </edge>
    <edge id=":10001371115_1" function="internal">
        <lane id=":10001371115_1_0" index="0" disallow="tram rail_urban rail rail_electric rail_fast ship container cable_car subway aircraft wheelchair scooter drone" speed="22.22" length="12.20" shape="528.39,927.31 527.73,924.11 527.78,921.35 528.16,918.55 528.54,915.23"/>
    </edge>
    <edge id=":10001402819_0" function="internal">
        <lane id=":10001402819_0_0" index="0" disallow="tram rail_urban rail rail_electric rail_fast ship container cable_car subway aircraft wheelchair scooter drone" speed="27.78" length="13.29" shape="525.60,901.42 538.20,897.22"/>
        <lane id=":10001402819_0_1" index="1" disallow="tram rail_urban rail rail_electric rail_fast ship container cable_car subway aircraft wheelchair scooter drone" speed="27.78" length="13.29" shape="526.61,904.45 539.21,900.26"/>
    </edge>
    <edge id=":10001402819_2" function="internal">
        <lane id=":10001402819_2_0" index="0" disallow="tram rail_urban rail rail_electric rail_fast ship container cable_car subway aircraft wheelchair scooter drone" speed="10.85" length="13.80" shape="529.82,909.66 531.28,906.43 533.33,903.79 535.97,901.73 539.21,900.26"/>
    </edge>
    <edge id=":10017267942_0" function="internal">
        <lane id=":10017267942_0_0" index="0" disallow="tram rail_urban rail rail_electric rail_fast ship container cable_car subway aircraft wheelchair scooter drone" speed="13.89" length="14.40" shape="1288.35,614.04 1274.65,618.48"/>
    </edge>
    <edge id=":10017267942_1" function="internal">
        <lane id=":10017267942_1_0" index="0" disallow="tram rail_urban rail rail_electric rail_fast ship container cable_car subway aircraft wheelchair scooter drone" speed="8.00" length="4.07" shape="1288.35,614.04 1284.51,614.70 1284.34,614.66"/>
    </edge>
    <edge id=":10017267942_2" function="internal">
        <lane id=":10017267942_2_0" index="0" disallow="tram rail_urban rail rail_electric rail_fast ship container cable_car subway aircraft wheelchair scooter drone" speed="3.65" length="1.44" shape="1288.35,614.04 1286.96,613.65"/>
    </edge>
    <edge id=":10017267942_9" function="internal">
        <lane id=":10017267942_9_0" index="0" disallow="tram rail_urban rail rail_electric rail_fast ship container cable_car subway aircraft wheelchair scooter drone" speed="8.00" length="10.13" shape="1284.34,614.66 1281.39,613.98 1278.97,611.87 1277.27,608.37"/>
    </edge>
    <edge id=":10017267942_10" function="internal">
        <lane id=":10017267942_10_0" index="0" disallow="tram rail_urban rail rail_electric rail_fast ship container cable_car subway aircraft wheelchair scooter drone" speed="3.65" length="3.23" shape="1286.96,613.65 1286.33,613.01 1286.47,612.12 1287.36,610.99"/>
    </edge>
    <edge id=":10017267942_3" function="internal">
        <lane id=":10017267942_3_0" index="0" disallow="tram rail_urban rail rail_electric rail_fast ship container cable_car subway aircraft wheelchair scooter drone" speed="6.50" length="9.03" shape="1280.31,607.39 1281.40,609.61 1282.93,610.96 1284.92,611.42 1287.36,610.99"/>
    </edge>
    <edge id=":10017267942_4" function="internal">
        <lane id=":10017267942_4_0" index="0" disallow="tram rail_urban rail rail_electric rail_fast ship container cable_car subway aircraft wheelchair scooter drone" speed="8.01" length="14.20" shape="1280.31,607.39 1280.97,611.23 1280.25,614.35 1278.14,616.77 1274.65,618.48"/>
    </edge>
    <edge id=":10017267942_5" function="internal">
        <lane id=":10017267942_5_0" index="0" disallow="tram rail_urban rail rail_electric rail_fast ship container cable_car subway aircraft wheelchair scooter drone" speed="3.65" length="4.67" shape="1280.31,607.39 1279.92,608.78 1279.28,609.40 1278.40,609.27 1277.27,608.37"/>
    </edge>
    <edge id=":10017267942_6" function="internal">
        <lane id=":10017267942_6_0" index="0" disallow="tram rail_urban rail rail_electric rail_fast ship container cable_car subway aircraft wheelchair scooter drone" speed="6.52" length="9.04" shape="1273.66,615.44 1275.89,614.35 1277.23,612.81 1277.69,610.81 1277.27,608.37"/>
    </edge>
    <edge id=":10017267942_7" function="internal">
        <lane id=":10017267942_7_0" index="0" disallow="tram rail_urban rail rail_electric rail_fast ship container cable_car subway aircraft wheelchair scooter drone" speed="13.89" length="14.40" shape="1273.66,615.44 1287.36,610.99"/>
    </edge>
    <edge id=":10017267942_8" function="internal">
        <lane id=":10017267942_8_0" index="0" disallow="tram rail_urban rail rail_electric rail_fast ship container cable_car subway aircraft wheelchair scooter drone" speed="3.65" length="1.44" shape="1273.66,615.44 1275.05,615.83"/>
    </edge>
    <edge id=":10017267942_11" function="internal">
        <lane id=":10017267942_11_0" index="0" disallow="tram rail_urban rail rail_electric rail_fast ship container cable_car subway aircraft wheelchair scooter drone" speed="3.65" length="3.23" shape="1275.05,615.83 1275.68,616.47 1275.55,617.35 1274.65,618.48"/>
    </edge>
    <edge id=":10017267943_0" function="internal">
        <lane id=":10017267943_0_0" index="0" disallow="tram rail_urban rail rail_electric rail_fast ship container cable_car subway aircraft wheelchair scooter drone" speed="13.89" length="14.34" shape="1264.42,568.49 1259.93,554.87"/>
    </edge>
    <edge id=":10017267943_1" function="internal">
        <lane id=":10017267943_1_0" index="0" disallow="tram rail_urban rail rail_electric rail_fast ship container cable_car subway aircraft wheelchair scooter drone" speed="7.97" length="4.03" shape="1264.42,568.49 1263.76,564.63 1263.79,564.52"/>
    </edge>
    <edge id=":10017267943_2" function="internal">
        <lane id=":10017267943_2_0" index="0" disallow="tram rail_urban rail rail_electric rail_fast ship container cable_car subway aircraft wheelchair scooter drone" speed="3.65" length="1.44" shape="1264.42,568.49 1264.82,567.10"/>
    </edge>
    <edge id=":10017267943_9" function="internal">
        <lane id=":10017267943_9_0" index="0" disallow="tram rail_urban rail rail_electric rail_fast ship container cable_car subway aircraft wheelchair scooter drone" speed="7.97" length="10.23" shape="1263.79,564.52 1264.51,561.50 1266.65,559.11 1270.21,557.46"/>
    </edge>
    <edge id=":10017267943_10" function="internal">
        <lane id=":10017267943_10_0" index="0" disallow="tram rail_urban rail rail_electric rail_fast ship container cable_car subway aircraft wheelchair scooter drone" speed="3.65" length="3.23" shape="1264.82,567.10 1265.45,566.48 1266.34,566.61 1267.47,567.51"/>
    </edge>
    <edge id=":10017267943_3" function="internal">
        <lane id=":10017267943_3_0" index="0" disallow="tram rail_urban rail rail_electric rail_fast ship container cable_car subway aircraft wheelchair scooter drone" speed="6.47" length="9.03" shape="1271.13,560.52 1268.88,561.57 1267.52,563.08 1267.05,565.06 1267.47,567.51"/>
    </edge>
    <edge id=":10017267943_4" function="internal">
        <lane id=":10017267943_4_0" index="0" disallow="tram rail_urban rail rail_electric rail_fast ship container cable_car subway aircraft wheelchair scooter drone" speed="8.10" length="14.20" shape="1271.13,560.52 1267.27,561.12 1264.12,560.38 1261.67,558.30 1259.93,554.87"/>
    </edge>
    <edge id=":10017267943_5" function="internal">
        <lane id=":10017267943_5_0" index="0" disallow="tram rail_urban rail rail_electric rail_fast ship container cable_car subway aircraft wheelchair scooter drone" speed="3.65" length="4.67" shape="1271.13,560.52 1269.75,560.10 1269.14,559.45 1269.29,558.57 1270.21,557.46"/>
    </edge>
    <edge id=":10017267943_6" function="internal">
        <lane id=":10017267943_6_0" index="0" disallow="tram rail_urban rail rail_electric rail_fast ship container cable_car subway aircraft wheelchair scooter drone" speed="6.62" length="9.16" shape="1262.97,553.85 1264.08,556.05 1265.66,557.38 1267.70,557.85 1270.21,557.46"/>
    </edge>
    <edge id=":10017267943_7" function="internal">
        <lane id=":10017267943_7_0" index="0" disallow="tram rail_urban rail rail_electric rail_fast ship container cable_car subway aircraft wheelchair scooter drone" speed="13.89" length="14.38" shape="1262.97,553.85 1267.47,567.51"/>
    </edge>
    <edge id=":10017267943_8" function="internal">
        <lane id=":10017267943_8_0" index="0" disallow="tram rail_urban rail rail_electric rail_fast ship container cable_car subway aircraft wheelchair scooter drone" speed="3.65" length="1.44" shape="1262.97,553.85 1262.59,555.24"/>
    </edge>
    <edge id=":10017267943_11" function="internal">
        <lane id=":10017267943_11_0" index="0" disallow="tram rail_urban rail rail_electric rail_fast ship container cable_car subway aircraft wheelchair scooter drone" speed="3.65" length="3.23" shape="1262.59,555.24 1261.96,555.88 1261.08,555.76 1259.93,554.87"/>
    </edge>
    <edge id=":10017267944_0" function="internal">
        <lane id=":10017267944_0_0" index="0" disallow="tram rail_urban rail rail_electric rail_fast ship container cable_car subway aircraft wheelchair scooter drone" speed="3.65" length="4.67" shape="1307.89,546.08 1309.27,546.50 1309.88,547.15 1309.73,548.03 1308.81,549.14"/>
    </edge>
    <edge id=":10020586900_0" function="internal">
        <lane id=":10020586900_0_0" index="0" disallow="tram rail_urban rail rail_electric rail_fast ship container cable_car subway aircraft wheelchair scooter drone" speed="2.78" length="4.67" shape="245.53,289.70 244.79,288.46 244.78,287.57 245.48,287.02 246.91,286.82"/>
    </edge>
    <edge id=":10123752377_0" function="internal">
        <lane id=":10123752377_0_0" index="0" disallow="tram rail_urban rail rail_electric rail_fast ship container cable_car subway aircraft wheelchair scooter drone" speed="13.89" length="5.63" shape="815.97,542.45 816.09,544.07 816.55,545.15 817.06,546.22 817.33,547.85"/>
    </edge>
    <edge id=":10603737333_0" function="internal">
        <lane id=":10603737333_0_0" index="0" disallow="tram rail_urban rail rail_electric rail_fast ship container cable_car subway aircraft wheelchair scooter drone" speed="6.87" length="10.16" shape="386.40,954.68 385.93,951.94 386.45,949.70 387.95,947.97 390.44,946.74"/>
        <lane id=":10603737333_0_1" index="1" disallow="tram rail_urban rail rail_electric rail_fast ship container cable_car subway aircraft wheelchair scooter drone" speed="6.09" length="7.76" shape="386.40,954.68 386.36,953.27 387.18,951.98 388.88,950.82 391.43,949.78"/>
    </edge>
    <edge id=":10603737333_2" function="internal">
        <lane id=":10603737333_2_0" index="0" disallow="tram rail_urban rail rail_electric rail_fast ship container cable_car subway aircraft wheelchair scooter drone" speed="3.65" length="4.67" shape="386.40,954.68 386.79,953.30 387.43,952.67 388.32,952.81 389.45,953.70"/>
    </edge>
    <edge id=":10603737333_3" function="internal">
        <lane id=":10603737333_3_0" index="0" disallow="tram rail_urban rail rail_electric rail_fast ship container cable_car subway aircraft wheelchair scooter drone" speed="27.78" length="9.39" shape="380.52,946.60 389.45,943.70"/>
        <lane id=":10603737333_3_1" index="1" disallow="tram rail_urban rail rail_electric rail_fast ship container cable_car subway aircraft wheelchair scooter drone" speed="27.78" length="9.39" shape="381.51,949.64 390.44,946.74"/>
        <lane id=":10603737333_3_2" index="2" disallow="tram rail_urban rail rail_electric rail_fast ship container cable_car subway aircraft wheelchair scooter drone" speed="27.78" length="9.39" shape="382.50,952.69 391.43,949.78"/>
    </edge>
    <edge id=":10603737333_6" function="internal">
        <lane id=":10603737333_6_0" index="0" disallow="tram rail_urban rail rail_electric rail_fast ship container cable_car subway aircraft wheelchair scooter drone" speed="6.08" length="7.76" shape="382.50,952.69 385.18,952.02 387.23,951.97 388.65,952.53 389.45,953.70"/>
    </edge>
    <edge id=":11169217411_0" function="internal">
        <lane id=":11169217411_0_0" index="0" disallow="tram rail_urban rail rail_electric rail_fast ship container cable_car subway aircraft wheelchair scooter drone" speed="27.78" length="8.11" shape="612.94,862.52 610.75,863.55 609.40,864.59 608.04,865.59 605.82,866.53"/>
        <lane id=":11169217411_0_1" index="1" disallow="tram rail_urban rail rail_electric rail_fast ship container cable_car subway aircraft wheelchair scooter drone" speed="27.78" length="8.11" shape="611.88,859.50 609.73,860.52 608.41,861.55 607.08,862.54 604.90,863.46"/>
        <lane id=":11169217411_0_2" index="2" disallow="tram rail_urban rail rail_electric rail_fast ship container cable_car subway aircraft wheelchair scooter drone" speed="27.78" length="8.11" shape="611.88,859.50 609.60,860.04 607.95,860.01 606.29,859.96 603.97,860.40"/>
    </edge>
    <edge id=":11283487985_0" function="internal">
        <lane id=":11283487985_0_0" index="0" disallow="tram rail_urban rail rail_electric rail_fast ship container cable_car subway aircraft wheelchair scooter drone" speed="8.29" length="4.72" shape="917.17,413.90 918.48,414.31 919.44,414.39 920.41,414.19 921.74,413.77"/>
    </edge>
    <edge id=":11283487985_1" function="internal">
        <lane id=":11283487985_1_0" index="0" disallow="tram rail_urban rail rail_electric rail_fast ship container cable_car subway aircraft wheelchair scooter drone" speed="8.33" length="5.43" shape="916.05,416.90 917.64,417.28 918.80,417.29 919.94,417.33 921.48,417.83"/>
        <lane id=":11283487985_1_1" index="1" disallow="tram rail_urban rail rail_electric rail_fast ship container cable_car subway aircraft wheelchair scooter drone" speed="8.33" length="5.43" shape="914.94,419.89 916.45,420.26 917.56,420.24 918.66,420.26 920.13,420.73"/>
    </edge>
    <edge id=":11356383282_0" function="internal">
        <lane id=":11356383282_0_0" index="0" disallow="tram rail_urban rail rail_electric rail_fast ship container cable_car subway aircraft wheelchair scooter drone" speed="2.78" length="4.67" shape="320.50,447.94 319.94,449.26 319.22,449.80 318.36,449.56 317.36,448.52"/>
    </edge>
    <edge id=":11356383283_0" function="internal">
        <lane id=":11356383283_0_0" index="0" disallow="tram rail_urban rail rail_electric rail_fast ship container cable_car subway aircraft wheelchair scooter drone" speed="5.84" length="9.13" shape="314.45,432.92 313.60,430.40 312.23,429.08 310.33,428.97 307.90,430.07"/>
    </edge>
    <edge id=":11356383283_1" function="internal">
        <lane id=":11356383283_1_0" index="0" disallow="tram rail_urban rail rail_electric rail_fast ship container cable_car subway aircraft wheelchair scooter drone" speed="8.34" length="15.11" shape="314.45,432.92 314.04,428.46 314.63,424.73 316.21,421.71 318.79,419.41"/>
    </edge>
    <edge id=":11356383283_2" function="internal">
        <lane id=":11356383283_2_0" index="0" disallow="tram rail_urban rail rail_electric rail_fast ship container cable_car subway aircraft wheelchair scooter drone" speed="2.78" length="4.67" shape="314.45,432.92 315.01,431.60 315.73,431.06 316.59,431.30 317.59,432.34"/>
    </edge>
    <edge id=":11356383283_3" function="internal">
        <lane id=":11356383283_3_0" index="0" disallow="tram rail_urban rail rail_electric rail_fast ship container cable_car subway aircraft wheelchair scooter drone" speed="8.34" length="11.29" shape="320.49,422.12 318.70,423.78 317.62,426.03 317.25,428.88 317.59,432.34"/>
    </edge>
    <edge id=":11356383283_4" function="internal">
        <lane id=":11356383283_4_0" index="0" disallow="tram rail_urban rail rail_electric rail_fast ship container cable_car subway aircraft wheelchair scooter drone" speed="13.89" length="14.89" shape="320.49,422.12 307.90,430.07"/>
    </edge>
    <edge id=":11356383283_5" function="internal">
        <lane id=":11356383283_5_0" index="0" disallow="tram rail_urban rail rail_electric rail_fast ship container cable_car subway aircraft wheelchair scooter drone" speed="3.65" length="1.44" shape="320.49,422.12 319.05,422.08"/>
    </edge>
    <edge id=":11356383283_9" function="internal">
        <lane id=":11356383283_9_0" index="0" disallow="tram rail_urban rail rail_electric rail_fast ship container cable_car subway aircraft wheelchair scooter drone" speed="3.65" length="3.23" shape="319.05,422.08 318.29,421.62 318.20,420.73 318.79,419.41"/>
    </edge>
    <edge id=":11356383283_6" function="internal">
        <lane id=":11356383283_6_0" index="0" disallow="tram rail_urban rail rail_electric rail_fast ship container cable_car subway aircraft wheelchair scooter drone" speed="13.89" length="14.89" shape="306.19,427.36 318.79,419.41"/>
    </edge>
    <edge id=":11356383283_7" function="internal">
        <lane id=":11356383283_7_0" index="0" disallow="tram rail_urban rail rail_electric rail_fast ship container cable_car subway aircraft wheelchair scooter drone" speed="7.50" length="4.63" shape="306.19,427.36 310.42,425.45"/>
    </edge>
    <edge id=":11356383283_8" function="internal">
        <lane id=":11356383283_8_0" index="0" disallow="tram rail_urban rail rail_electric rail_fast ship container cable_car subway aircraft wheelchair scooter drone" speed="3.65" length="1.44" shape="306.19,427.36 307.64,427.40"/>
    </edge>
    <edge id=":11356383283_10" function="internal">
        <lane id=":11356383283_10_0" index="0" disallow="tram rail_urban rail rail_electric rail_fast ship container cable_car subway aircraft wheelchair scooter drone" speed="7.50" length="11.26" shape="310.42,425.45 313.73,425.65 316.12,427.94 317.59,432.34"/>
    </edge>
    <edge id=":11356383283_11" function="internal">
        <lane id=":11356383283_11_0" index="0" disallow="tram rail_urban rail rail_electric rail_fast ship container cable_car subway aircraft wheelchair scooter drone" speed="3.65" length="3.23" shape="307.64,427.40 308.40,427.86 308.49,428.75 307.90,430.07"/>
    </edge>
    <edge id=":11432437452_0" function="internal">
        <lane id=":11432437452_0_0" index="0" disallow="tram rail_urban rail rail_electric rail_fast ship container cable_car subway aircraft wheelchair scooter drone" speed="8.57" length="16.56" shape="1355.06,610.10 1356.17,615.14 1355.77,619.12 1353.86,622.05 1350.44,623.94"/>
        <lane id=":11432437452_0_1" index="1" disallow="tram rail_urban rail rail_electric rail_fast ship container cable_car subway aircraft wheelchair scooter drone" speed="7.24" length="11.51" shape="1351.98,611.00 1352.85,614.68 1352.72,617.56 1351.59,619.63 1349.45,620.89"/>
        <lane id=":11432437452_0_2" index="2" disallow="tram rail_urban rail rail_electric rail_fast ship container cable_car subway aircraft wheelchair scooter drone" speed="6.41" length="8.81" shape="1351.98,611.00 1352.41,613.35 1351.96,615.28 1350.65,616.78 1348.46,617.85"/>
    </edge>
    <edge id=":1232953258_0" function="internal">
        <lane id=":1232953258_0_0" index="0" disallow="tram rail_urban rail rail_electric rail_fast ship container cable_car subway aircraft wheelchair scooter drone" speed="15.27" length="0.34" shape="964.19,418.63 964.28,418.65 964.35,418.66 964.42,418.66 964.52,418.66"/>
    </edge>
    <edge id=":1232953264_0" function="internal">
        <lane id=":1232953264_0_0" index="0" disallow="tram rail_urban rail rail_electric rail_fast ship container cable_car subway aircraft wheelchair scooter drone" speed="8.33" length="11.85" shape="978.11,420.34 978.25,417.01 979.52,414.76 980.77,412.51 980.87,409.19"/>
        <lane id=":1232953264_0_1" index="1" disallow="tram rail_urban rail rail_electric rail_fast ship container cable_car subway aircraft wheelchair scooter drone" speed="8.33" length="11.85" shape="981.25,419.75 981.39,416.40 982.66,414.14 983.91,411.89 984.00,408.55"/>
        <lane id=":1232953264_0_2" index="2" disallow="tram rail_urban rail rail_electric rail_fast ship container cable_car subway aircraft wheelchair scooter drone" speed="8.33" length="11.85" shape="984.40,419.15 984.53,415.80 985.80,413.53 987.05,411.26 987.14,407.92"/>
    </edge>
    <edge id=":1232953264_3" function="internal">
        <lane id=":1232953264_3_0" index="0" disallow="tram rail_urban rail rail_electric rail_fast ship container cable_car subway aircraft wheelchair scooter drone" speed="7.79" length="13.02" shape="972.68,417.49 976.72,416.12 979.44,414.28 980.82,411.97 980.87,409.19"/>
    </edge>
    <edge id=":1232953300_0" function="internal">
        <lane id=":1232953300_0_0" index="0" disallow="tram rail_urban rail rail_electric rail_fast ship container cable_car subway aircraft wheelchair scooter drone" speed="8.33" length="4.87" shape="1000.02,456.14 998.45,455.44 997.44,454.79 996.63,453.91 995.67,452.49"/>
        <lane id=":1232953300_0_1" index="1" disallow="tram rail_urban rail rail_electric rail_fast ship container cable_car subway aircraft wheelchair scooter drone" speed="8.32" length="4.87" shape="1001.27,453.19 1000.22,452.72 999.54,452.29 999.00,451.70 998.35,450.75"/>
    </edge>
    <edge id=":1232953300_2" function="internal">
        <lane id=":1232953300_2_0" index="0" disallow="tram rail_urban rail rail_electric rail_fast ship container cable_car subway aircraft wheelchair scooter drone" speed="5.90" length="3.97" shape="992.97,458.79 992.21,458.46 991.47,457.69 990.81,456.77 990.30,455.98"/>
        <lane id=":1232953300_2_1" index="1" disallow="tram rail_urban rail rail_electric rail_fast ship container cable_car subway aircraft wheelchair scooter drone" speed="4.19" length="1.72" shape="993.02,455.59 993.33,455.51 993.43,455.26 993.32,454.83 992.98,454.24"/>
    </edge>
    <edge id=":1232953309_0" function="internal">
        <lane id=":1232953309_0_0" index="0" disallow="tram rail_urban rail rail_electric rail_fast ship container cable_car subway aircraft wheelchair scooter drone" speed="8.33" length="7.15" shape="1019.14,461.96 1017.02,461.66 1015.50,461.77 1014.01,461.79 1011.98,461.21"/>
        <lane id=":1232953309_0_1" index="1" disallow="tram rail_urban rail rail_electric rail_fast ship container cable_car subway aircraft wheelchair scooter drone" speed="8.33" length="7.15" shape="1019.14,461.96 1017.24,461.20 1016.12,460.29 1015.03,459.29 1013.23,458.27"/>
    </edge>
    <edge id=":12679813748_0" function="internal">
        <lane id=":12679813748_0_0" index="0" disallow="tram rail_urban rail rail_electric rail_fast ship container cable_car subway aircraft wheelchair scooter drone" speed="6.04" length="7.86" shape="1193.15,484.22 1193.16,482.75 1194.05,481.49 1195.82,480.44 1198.48,479.61"/>
    </edge>
    <edge id=":12679813748_1" function="internal">
        <lane id=":12679813748_1_0" index="0" disallow="tram rail_urban rail rail_electric rail_fast ship container cable_car subway aircraft wheelchair scooter drone" speed="3.65" length="4.67" shape="1193.15,484.22 1193.60,482.85 1194.27,482.26 1195.15,482.43 1196.23,483.38"/>
    </edge>
    <edge id=":12679813748_2" function="internal">
        <lane id=":12679813748_2_0" index="0" disallow="tram rail_urban rail rail_electric rail_fast ship container cable_car subway aircraft wheelchair scooter drone" speed="13.89" length="9.40" shape="1188.59,478.63 1197.75,476.50"/>
        <lane id=":12679813748_2_1" index="1" disallow="tram rail_urban rail rail_electric rail_fast ship container cable_car subway aircraft wheelchair scooter drone" speed="13.89" length="9.40" shape="1189.32,481.75 1198.48,479.61"/>
    </edge>
    <edge id=":12679813748_4" function="internal">
        <lane id=":12679813748_4_0" index="0" disallow="tram rail_urban rail rail_electric rail_fast ship container cable_car subway aircraft wheelchair scooter drone" speed="6.18" length="7.82" shape="1189.32,481.75 1192.03,481.32 1194.09,481.45 1195.49,482.13 1196.23,483.38"/>
    </edge>
    <edge id=":1274338608_0" function="internal">
        <lane id=":1274338608_0_0" index="0" disallow="tram rail_urban rail rail_electric rail_fast ship container cable_car subway aircraft wheelchair scooter drone" speed="3.65" length="4.67" shape="845.41,283.33 846.41,282.29 847.27,282.03 847.99,282.57 848.57,283.89"/>
    </edge>
    <edge id=":12823561830_0" function="internal">
        <lane id=":12823561830_0_0" index="0" disallow="tram rail_urban rail rail_electric rail_fast ship container cable_car subway aircraft wheelchair scooter drone" speed="2.78" length="4.67" shape="425.80,456.63 424.37,456.80 423.55,456.44 423.34,455.57 423.74,454.19"/>
    </edge>
    <edge id=":1837445408_0" function="internal">
        <lane id=":1837445408_0_0" index="0" disallow="tram rail_urban rail rail_electric rail_fast ship container cable_car subway aircraft wheelchair scooter drone" speed="7.65" length="10.42" shape="664.05,428.36 663.10,425.41 661.66,423.27 659.76,421.95 657.38,421.44"/>
    </edge>
    <edge id=":1837445408_1" function="internal">
        <lane id=":1837445408_1_0" index="0" disallow="tram rail_urban rail rail_electric rail_fast ship container cable_car subway aircraft wheelchair scooter drone" speed="7.63" length="2.83" shape="664.05,428.36 663.86,425.53"/>
    </edge>
    <edge id=":1837445408_2" function="internal">
        <lane id=":1837445408_2_0" index="0" disallow="tram rail_urban rail rail_electric rail_fast ship container cable_car subway aircraft wheelchair scooter drone" speed="3.65" length="1.33" shape="664.05,428.36 664.54,427.12"/>
    </edge>
    <edge id=":1837445408_9" function="internal">
        <lane id=":1837445408_9_0" index="0" disallow="tram rail_urban rail rail_electric rail_fast ship container cable_car subway aircraft wheelchair scooter drone" speed="7.63" length="12.39" shape="663.86,425.53 663.76,424.03 664.99,421.00 667.76,419.25 672.07,418.78"/>
    </edge>
    <edge id=":1837445408_10" function="internal">
        <lane id=":1837445408_10_0" index="0" disallow="tram rail_urban rail rail_electric rail_fast ship container cable_car subway aircraft wheelchair scooter drone" speed="3.65" length="3.35" shape="664.54,427.12 664.58,427.01 665.28,426.46 666.15,426.68 667.18,427.69"/>
    </edge>
    <edge id=":1837445408_3" function="internal">
        <lane id=":1837445408_3_0" index="0" disallow="tram rail_urban rail rail_electric rail_fast ship container cable_car subway aircraft wheelchair scooter drone" speed="6.04" length="9.07" shape="671.96,421.98 669.39,422.26 667.74,423.30 667.00,425.11 667.18,427.69"/>
    </edge>
    <edge id=":1837445408_4" function="internal">