<?xml version="1.0" encoding="UTF-8"?>

<!-- generated on 2025-10-29T01:33:31.196289+05:30 by Eclipse SUMO duarouter v1_24_0+1454-51d0da9119e
<duarouterConfiguration xmlns:xsi="http://www.w3.org/2001/XMLSchema-instance" xsi:noNamespaceSchemaLocation="http://sumo.dlr.de/xsd/duarouterConfiguration.xsd">

    <input>
        <net-file value="mg_road.net.xml"/>
        <route-files value="mg_road.trips.xml"/>
    </input>

    <output>
        <output-file value="mg_road.rou.xml"/>
    </output>

    <report>
        <no-warnings value="true"/>
        <ignore-errors value="true"/>
    </report>

</duarouterConfiguration>
-->

<routes xmlns:xsi="http://www.w3.org/2001/XMLSchema-instance" xsi:noNamespaceSchemaLocation="http://sumo.dlr.de/xsd/routes_file.xsd">
    <vType id="passenger" vClass="passenger"/>
    <vehicle id="0" type="passenger" depart="0.00" departLane="best" departSpeed="max">
        <route edges="-213087098#2 124316745#6 124316745#9 124316745#12 763405053#0 1101271052#0 -1369024077#1 995154329#1 1014276813#0 1014276813#1"/>
    </vehicle>
    <vehicle id="1" type="passenger" depart="10.00" departLane="best" departSpeed="max">
        <route edges="328758433#0 1150927563#0 1150927562#0 -995154329#3 -995154329#1 1369024077#0 1101271052#2 263812623#0"/>
    </vehicle>
    <vehicle id="2" type="passenger" depart="20.00" departLane="best" departSpeed="max">
        <route edges="-1014276813#1 1014276813#1"/>
    </vehicle>
    <vehicle id="3" type="passenger" depart="30.00" departLane="best" departSpeed="max">
        <route edges="124316745#12 763405053#0 544759837#0 544759838#0 1125542419#0 48166762#0 172920292#0"/>
    </vehicle>
    <vehicle id="4" type="passenger" depart="40.00" departLane="best" departSpeed="max">
        <route edges="-995154329#1 1369024077#0 1101271052#2 1166322819#0 38522039 638541500#0 544759837#0 544759838#0 1125542419#0 1125542419#1 -369380181#1 -36332256#2"/>
    </vehicle>
    <vehicle id="5" type="passenger" depart="50.00" departLane="best" departSpeed="max">
        <route edges="638541495#0 1166322819#0 38522039 638541500#0 544759837#0 544759838#0 1125542419#0"/>
    </vehicle>
    <vehicle id="6" type="passenger" depart="60.00" departLane="best" departSpeed="max">
        <route edges="-1093707706 -1093707705#0 1369024077#0 1101271052#2 1166322819#0 38522039 638541500#0 544759837#0 544759838#0 1125542419#0 1125542419#1 -369380181#1 -1349935083"/>
    </vehicle>
    <vehicle id="7" type="passenger" depart="70.00" departLane="best" departSpeed="max">
        <route edges="107215079#0 107215079#4 544761377#0 544761381 1110192330 1150927562#0 -995154329#3 -995154329#1 1369024077#0 1101271052#2 1166322819#0 38522039 638541500#0 544759837#0 544759838#0 1125542419#0 48166762#0 172920292#0"/>
    </vehicle>
    <vehicle id="8" type="passenger" depart="80.00" departLane="best" departSpeed="max">
        <route edges="-1089717992 1089717992"/>
    </vehicle>
    <vehicle id="9" type="passenger" depart="90.00" departLane="best" departSpeed="max">
        <route edges="-1093707706 1093707706"/>
    </vehicle>
    <vehicle id="10" type="passenger" depart="100.00" departLane="best" departSpeed="max">
        <route edges="124316745#0 124316745#6 124316745#9 23029691#0 1109956875 544759838#0 1125542419#0 1125542419#1 1125542419#3"/>
    </vehicle>
    <vehicle id="11" type="passenger" depart="110.00" departLane="best" departSpeed="max">
        <route edges="107215079#0 107215079#4 544761377#0 544761381 1110192330 1150927562#0 -995154329#3 1014276813#0 1014276813#1"/>
    </vehicle>
    <vehicle id="12" type="passenger" depart="120.00" departLane="best" departSpeed="max">
        <route edges="-213087098#2 124316745#6 124316745#9 23029691#0 1109956875 544759838#0 1227562844#0 36332258#0 -36332257#3 -36332257#0 1136281758#0 553253473#0"/>
    </vehicle>
    <vehicle id="13" type="passenger" depart="130.00" departLane="best" departSpeed="max">
        <route edges="-1136281758#5 -1136281758#4 1136281758#0"/>
    </vehicle>
    <vehicle id="14" type="passenger" depart="140.00" departLane="best" departSpeed="max">
        <route edges="1166322819#0 38522039 638541500#0 1101271052#0 1101271052#2 263812623#0"/>
    </vehicle>
    <vehicle id="15" type="passenger" depart="150.00" departLane="best" departSpeed="max">
        <route edges="36967442#0 1166322819#0 38522039 638541500#0 544759837#0 544759838#0 1227562844#0 36332258#0 48166762#22"/>
    </vehicle>
    <vehicle id="16" type="passenger" depart="160.00" departLane="best" departSpeed="max">
        <route edges="-172920292#1 48166762#11 -36332257#3 -36332257#0 1136281758#0 553253473#0"/>
    </vehicle>
    <vehicle id="17" type="passenger" depart="170.00" departLane="best" departSpeed="max">
        <route edges="124316745#9 23029691#0 1109956875 544759838#0 1227562844#0 36332258#0 -36332257#3 -36332257#0 1136281758#0 1136281758#5"/>
    </vehicle>
    <vehicle id="18" type="passenger" depart="180.00" departLane="best" departSpeed="max">
        <route edges="544759838#0 1227562844#0 36332258#0 -36332257#3 1224538501"/>
    </vehicle>
    <vehicle id="19" type="passenger" depart="190.00" departLane="best" departSpeed="max">
        <route edges="-213087098#2 124316745#6 124316745#9 23029691#0 1109956875 544759838#0 1227562844#0 36332258#0 -36332257#3 -36332257#0 172903807#0 1089717992"/>
    </vehicle>
    <vehicle id="20" type="passenger" depart="200.00" departLane="best" departSpeed="max">
        <route edges="1196514128#0 705023783#0 544761382#0 544761380#0 542070647#0"/>
    </vehicle>
    <vehicle id="21" type="passenger" depart="210.00" departLane="best" departSpeed="max">
        <route edges="995154329#2 -995154329#3 -995154329#1 1369024077#0 1101271052#2 1166322819#0 38522039 638541500#0 544759837#0 544759838#0 1227562844#0 1308654713"/>
    </vehicle>
    <vehicle id="22" type="passenger" depart="220.00" departLane="best" departSpeed="max">
        <route edges="995154329#1 1014276813#0 -1093707705#1 -1093707705#0 1369024077#0 1101271052#2 1166322819#0 38522039 638541500#0 544759837#0 544759838#0 1227562844#0 36332258#0 -36332257#3 -36332257#0 172903807#0"/>
    </vehicle>
    <vehicle id="23" type="passenger" depart="230.00" departLane="best" departSpeed="max">
        <route edges="638541495#0 172947338#1 464465211#0 464465211#2 542070644#0"/>
    </vehicle>
    <vehicle id="24" type="passenger" depart="240.00" departLane="best" departSpeed="max">
        <route edges="-1014276813#1 -1014276813#0 -995154329#1 1369024077#0 1101271052#2 1166322819#0 38522039 325833356#0 763293421 638541502#0 325833350#0"/>
    </vehicle>
    <vehicle id="25" type="passenger" depart="250.00" departLane="best" departSpeed="max">
        <route edges="27946046#0 38522039 638541500#0 544759837#0 544759838#0 1125542419#0 48166762#0 172920292#0"/>
    </vehicle>
    <vehicle id="26" type="passenger" depart="260.00" departLane="best" departSpeed="max">
        <route edges="-213087098#2 124316745#6 213087110#0"/>
    </vehicle>
    <vehicle id="27" type="passenger" depart="270.00" departLane="best" departSpeed="max">
        <route edges="-1093707706 -1093707705#0 1369024077#0 1101271052#2 1166322819#0 38522039 638541500#0 544759837#0 544759838#0 1227562844#0 36332258#0 -36332257#3 1224538501"/>
    </vehicle>
    <vehicle id="28" type="passenger" depart="280.00" departLane="best" departSpeed="max">
        <route edges="1110192329#0 544761381 1110192330 1150927562#0 -995154329#3 -995154329#1 1369024077#0 1101271052#2 1166322819#0 38522039 638541500#0 544759837#0 544759838#0 1227562844#0 36332258#0 -36332257#3 -36332257#0 1136281758#0 553253473#0"/>
    </vehicle>
    <vehicle id="29" type="passenger" depart="290.00" departLane="best" departSpeed="max">
        <route edges="111997552#0 124316745#12 763405053#0 1101271052#0 -1369024077#1 -995154329#0"/>
    </vehicle>
    <vehicle id="30" type="passenger" depart="300.00" departLane="best" departSpeed="max">
        <route edges="544759838#0 705023783#0 542070644#0"/>
    </vehicle>
    <vehicle id="31" type="passenger" depart="310.00" departLane="best" departSpeed="max">
        <route edges="-213087110#1 213087110#0"/>
    </vehicle>
    <vehicle id="32" type="passenger" depart="320.00" departLane="best" departSpeed="max">
        <route edges="124316745#0 124316745#6 124316745#9 23029691#0 1109956875 544759838#0 1125542419#0 1125542419#1 -369380181#1 -36332256#2"/>
    </vehicle>
    <vehicle id="33" type="passenger" depart="330.00" departLane="best" departSpeed="max">
        <route edges="-213087110#1 124316745#9 -111997552#1"/>
    </vehicle>
    <vehicle id="34" type="passenger" depart="340.00" departLane="best" departSpeed="max">
        <route edges="36332256#0 -36332256#2"/>
    </vehicle>
    <vehicle id="35" type="passenger" depart="350.00" departLane="best" departSpeed="max">
        <route edges="1113076998#0 107215079#4 544761377#0 544761381 1110192330 1150927562#0 -995154329#3 -995154329#1 1369024077#0 1101271052#2 1166322819#0 38522039 638541500#0 544759837#0 544759838#0 1125542419#0 48166762#0 172920292#0"/>
    </vehicle>
    <vehicle id="36" type="passenger" depart="360.00" departLane="best" departSpeed="max">
        <route edges="-213087098#2 124316745#6 124316745#9 23029691#0 1109956875 544759838#0 705023783#0 542070644#0"/>
    </vehicle>
    <vehicle id="37" type="passenger" depart="370.00" departLane="best" departSpeed="max">
        <route edges="1101271052#0 1101271052#2 1166322819#0 38522039 638541500#0 544759837#0 544759838#0 1227562844#0 1308654713"/>
    </vehicle>
    <vehicle id="38" type="passenger" depart="380.00" departLane="best" departSpeed="max">
        <route edges="-1093707706 1093707705#1 1014276813#1"/>
    </vehicle>
    <vehicle id="39" type="passenger" depart="390.00" departLane="best" departSpeed="max">
        <route edges="-172920292#1 48166762#11 -36332257#3 -36332257#0 172903807#0 172903807#2 -369380181#1 -36332256#2"/>
    </vehicle>
    <vehicle id="40" type="passenger" depart="400.00" departLane="best" departSpeed="max">
        <route edges="638541495#0 1166322819#0 38522039 638541500#0 544759837#0 544759838#0 1125542419#0 48166762#0 172920292#0"/>
    </vehicle>
    <vehicle id="41" type="passenger" depart="410.00" departLane="best" departSpeed="max">
        <route edges="1113076998#0 107215079#4 544761377#0 544761381 1110192330 1150927562#0 -995154329#3 -995154329#1 1369024077#0 1101271052#2 1166322819#0 38522039 638541500#0 544759837#0 544759838#0 1227562844#0 36332258#0 48166762#22"/>
    </vehicle>
    <vehicle id="42" type="passenger" depart="420.00" departLane="best" departSpeed="max">
        <route edges="-1093707706 -1093707705#0 1369024077#0 1101271052#2 1166322819#0 38522039 638541500#0 1166571294"/>
    </vehicle>
    <vehicle id="43" type="passenger" depart="430.00" departLane="best" departSpeed="max">
        <route edges="1094100012#0 -1136281758#4 36332257#0 1224538501"/>
    </vehicle>
    <vehicle id="44" type="passenger" depart="440.00" departLane="best" departSpeed="max">
        <route edges="328758433#0 1150927563#0 1150927562#0 -995154329#3 -995154329#1 1369024077#0 1101271052#2 263812623#0"/>
    </vehicle>
    <vehicle id="45" type="passenger" depart="450.00" departLane="best" departSpeed="max">
        <route edges="705023783#0 1150927562#0 -995154329#3 -995154329#1 1369024077#0 1101271052#2 1166322819#0 38522039 638541500#0 544759837#0 544759838#0 1125542419#0 1125542419#1 -369380181#1 -1349935083"/>
    </vehicle>
    <vehicle id="46" type="passenger" depart="460.00" departLane="best" departSpeed="max">
        <route edges="-1224538501 1224538501"/>
    </vehicle>
    <vehicle id="47" type="passenger" depart="470.00" departLane="best" departSpeed="max">
        <route edges="-213087098#2 124316745#6 124316745#9 23029691#0 1109956875 544759838#0 705023783#0 544761382#0 544761380#0"/>
    </vehicle>
    <vehicle id="48" type="passenger" depart="480.00" departLane="best" departSpeed="max">
        <route edges="1101271052#2 172947338#1 464465211#0 464465211#2 542070644#0"/>
    </vehicle>
    <vehicle id="49" type="passenger" depart="490.00" departLane="best" departSpeed="max">
        <route edges="995154329#2 542070643#3"/>
    </vehicle>
    <vehicle id="50" type="passenger" depart="500.00" departLane="best" departSpeed="max">
        <route edges="638541495#0 172947338#1 464465211#0 464465211#2 544761382#0 544761380#0"/>
    </vehicle>
    <vehicle id="51" type="passenger" depart="510.00" departLane="best" departSpeed="max">
        <route edges="36967442#0 1166322819#0 38522039 638541500#0 544759837#0 544759838#0 1227562844#0 36332258#0 -36332257#3 -36332257#0"/>
    </vehicle>
    <vehicle id="52" type="passenger" depart="520.00" departLane="best" departSpeed="max">
        <route edges="1113076998#0 107215079#4 544761377#0 544761381 1110192330 1150927562#0 -995154329#3 1014276813#0 1014276813#1"/>
    </vehicle>
    <vehicle id="53" type="passenger" depart="530.00" departLane="best" departSpeed="max">
        <route edges="107215079#0 107215079#4 544761377#0 544761381 1110192330 1150927562#0 -995154329#3 -995154329#1 1369024077#0 1101271052#2 1166322819#0 38522039 638541500#0 544759837#0 544759838#0 705023783#0"/>
    </vehicle>
    <vehicle id="54" type="passenger" depart="540.00" departLane="best" departSpeed="max">
        <route edges="-213087098#2 124316745#6 124316745#9 23029691#0 1109956875 544759838#0 1227562844#0 36332258#0 48166762#22"/>
    </vehicle>
    <vehicle id="55" type="passenger" depart="550.00" departLane="best" departSpeed="max">
        <route edges="638541495#0 172947338#1 464465211#0 -995154329#3 -995154329#1 995154329#1"/>
    </vehicle>
    <vehicle id="56" type="passenger" depart="560.00" departLane="best" departSpeed="max">
        <route edges="1166322819#0 38522039 325833356#0 763293421 638541502#0 325833350#0"/>
    </vehicle>
    <vehicle id="57" type="passenger" depart="570.00" departLane="best" departSpeed="max">
        <route edges="111997552#0 23029691#0 1109956875 544759838#0 705023783#0 542070644#0"/>
    </vehicle>
    <vehicle id="58" type="passenger" depart="580.00" departLane="best" departSpeed="max">
        <route edges="-1136281758#5 553253473#0"/>
    </vehicle>
    <vehicle id="59" type="passenger" depart="590.00" departLane="best" departSpeed="max">
        <route edges="-1093707705#0 995154329#1 995154329#2 -995154329#3"/>
    </vehicle>
    <vehicle id="60" type="passenger" depart="600.00" departLane="best" departSpeed="max">
        <route edges="1196514128#0 705023783#0 1150927562#0 -995154329#3 -995154329#1 1369024077#0 1101271052#2 263812623#0"/>
    </vehicle>
    <vehicle id="61" type="passenger" depart="610.00" departLane="best" departSpeed="max">
        <route edges="-172920292#1 48166762#11 -36332257#3 -36332257#0 172903807#0 172903807#2 -369380181#1 -1349935083"/>
    </vehicle>
    <vehicle id="62" type="passenger" depart="620.00" departLane="best" departSpeed="max">
        <route edges="111997552#0 23029691#0 1109956875 544759838#0 1227562844#0 36332258#0 -36332257#3 -36332257#0 1136281758#0 553253473#0"/>
    </vehicle>
    <vehicle id="63" type="passenger" depart="630.00" departLane="best" departSpeed="max">
        <route edges="-172920292#1 48166762#11 -36332257#3 -36332257#0 1136281758#0 1136281758#5"/>
    </vehicle>
    <vehicle id="64" type="passenger" depart="640.00" departLane="best" departSpeed="max">
        <route edges="172947338#1 464465211#0 -995154329#3 1014276813#0 -1093707705#1 1093707706"/>
    </vehicle>
    <vehicle id="65" type="passenger" depart="650.00" departLane="best" departSpeed="max">
        <route edges="-213087110#1 124316745#9 124316745#12 763405053#0 1101271052#0 1101271052#2 172947338#1 464465211#0"/>
    </vehicle>
    <vehicle id="66" type="passenger" depart="660.00" departLane="best" departSpeed="max">
        <route edges="995154329#2 -995154329#3 -995154329#1 995154329#1"/>
    </vehicle>
    <vehicle id="67" type="passenger" depart="670.00" departLane="best" departSpeed="max">
        <route edges="-213087098#2 124316745#6 124316745#9 23029691#0 1109956875 544759838#0 705023783#0 544761382#0"/>
    </vehicle>
    <vehicle id="68" type="passenger" depart="680.00" departLane="best" departSpeed="max">
        <route edges="107215079#0 107215079#4 544761377#0 544761381 1110192330 1150927562#0 -995154329#3 -995154329#1 1369024077#0 1101271052#2 1166322819#0 38522039 638541500#0 544759837#0 544759838#0 1125542419#0 1125542419#1 -369380181#1 -36332256#2"/>
    </vehicle>
    <vehicle id="69" type="passenger" depart="690.00" departLane="best" departSpeed="max">
        <route edges="36967442#0 1166322819#0 38522039 325833356#0 763293421 638541502#0 325833350#0"/>
    </vehicle>
    <vehicle id="70" type="passenger" depart="700.00" departLane="best" departSpeed="max">
        <route edges="124316745#0 124316745#6 124316745#9 124316745#12 763405053#0 1101271052#0 1101271052#2 1166322819#0 38522039 325833356#0 763293421"/>
    </vehicle>
    <vehicle id="71" type="passenger" depart="710.00" departLane="best" departSpeed="max">
        <route edges="124316745#6 124316745#9 124316745#12 763405053#0 1101271052#0 -1369024077#1 995154329#1 1014276813#0 -1093707705#1"/>
    </vehicle>
    <vehicle id="72" type="passenger" depart="720.00" departLane="best" departSpeed="max">
        <route edges="36967442#0 172947338#1 464465211#0 -995154329#3 1014276813#0 -1093707705#1 1093707706"/>
    </vehicle>
    <vehicle id="73" type="passenger" depart="730.00" departLane="best" departSpeed="max">
        <route edges="-1136281758#5 -1136281758#4 172903807#0 172903807#2 -369380181#1 -1349935083"/>
    </vehicle>
    <vehicle id="74" type="passenger" depart="740.00" departLane="best" departSpeed="max">
        <route edges="-1093707706 -1093707705#0 1369024077#0 1101271052#2 1166322819#0 38522039 638541500#0 544759837#0 544759838#0 1125542419#0 48166762#0 172920292#0"/>
    </vehicle>
    <vehicle id="75" type="passenger" depart="750.00" departLane="best" departSpeed="max">
        <route edges="-213087098#2 213087098#0"/>
    </vehicle>
    <vehicle id="76" type="passenger" depart="760.00" departLane="best" departSpeed="max">
        <route edges="124316745#0 124316745#6 124316745#9 23029691#0 1109956875 544759838#0 1227562844#0 36332258#0 -36332257#3 -36332257#0 172903807#0 1089717992"/>
    </vehicle>
    <vehicle id="77" type="passenger" depart="770.00" departLane="best" departSpeed="max">
        <route edges="1113076998#0 107215079#4 544761377#0 544761381 1110192330 544761382#0 544761380#0 542070647#0"/>
    </vehicle>
    <vehicle id="78" type="passenger" depart="780.00" departLane="best" departSpeed="max">
        <route edges="36967442#0 1166322819#0 38522039 638541500#0 544759837#0 544759838#0 1125542419#0 1125542419#1 -369380181#1 -1349935083"/>
    </vehicle>
    <vehicle id="79" type="passenger" depart="790.00" departLane="best" departSpeed="max">
        <route edges="-1014276813#0 -995154329#1 1369024077#0 1101271052#2 1166322819#0 38522039 638541500#0 544759837#0 544759838#0 1227562844#0 36332258#0 48166762#22"/>
    </vehicle>
    <vehicle id="80" type="passenger" depart="800.00" departLane="best" departSpeed="max">
        <route edges="124316745#0 124316745#6 124316745#9 23029691#0 1109956875 544759838#0 1227562844#0 36332258#0 -36332257#3 -36332257#0 172903807#0 1089717992"/>
    </vehicle>
    <vehicle id="81" type="passenger" depart="810.00" departLane="best" departSpeed="max">
        <route edges="328758433#0 1150927563#0 1150927562#0 -995154329#3 -995154329#1 1369024077#0 1101271052#2 1166322819#0 38522039 638541500#0 544759837#0 544759838#0 1125542419#0 48166762#0 172920292#0"/>
    </vehicle>
    <vehicle id="82" type="passenger" depart="820.00" departLane="best" departSpeed="max">
        <route edges="48166762#0 172920292#0"/>
    </vehicle>
    <vehicle id="83" type="passenger" depart="830.00" departLane="best" departSpeed="max">
        <route edges="-213087110#1 124316745#9 23029691#0 1109956875 544759838#0 705023783#0 544761382#0 544761380#0 542070647#0"/>
    </vehicle>
    <vehicle id="84" type="passenger" depart="840.00" departLane="best" departSpeed="max">
        <route edges="464465211#2 1150927562#0 -995154329#3 1014276813#0 1014276813#1"/>
    </vehicle>
    <vehicle id="85" type="passenger" depart="850.00" departLane="best" departSpeed="max">
        <route edges="-213087098#2 124316745#6 124316745#9 23029691#0 1109956875 544759838#0 1125542419#0 1125542419#1 -369380181#1 -1349935083"/>
    </vehicle>
    <vehicle id="86" type="passenger" depart="860.00" departLane="best" departSpeed="max">
        <route edges="-1014276813#1 -1014276813#0 -995154329#1 1369024077#0 1101271052#2 1166322819#0 38522039 638541500#0 544759837#0 544759838#0 1227562844#0 36332258#0 -36332257#3 36332257#1"/>
    </vehicle>
    <vehicle id="87" type="passenger" depart="870.00" departLane="best" departSpeed="max">
        <route edges="36332256#0 -1349935083"/>
    </vehicle>
    <vehicle id="88" type="passenger" depart="880.00" departLane="best" departSpeed="max">
        <route edges="1113076998#0 107215079#4 544761377#0 544761381 1110192330 1150927562#0 -995154329#3 1014276813#0 -1093707705#1 1093707706"/>
    </vehicle>
    <vehicle id="89" type="passenger" depart="890.00" departLane="best" departSpeed="max">
        <route edges="-1014276813#1 1014276813#1"/>
    </vehicle>
    <vehicle id="90" type="passenger" depart="900.00" departLane="best" departSpeed="max">
        <route edges="638541495#0 172947338#1 464465211#0 -995154329#3 1014276813#0 -1093707705#1 1093707706"/>
    </vehicle>
    <vehicle id="91" type="passenger" depart="910.00" departLane="best" departSpeed="max">
        <route edges="124316745#0 124316745#6 124316745#9 23029691#0 1109956875 544759838#0 1227562844#0 36332258#0 -36332257#3 -36332257#0 1136281758#0 1136281758#5"/>
    </vehicle>
    <vehicle id="92" type="passenger" depart="920.00" departLane="best" departSpeed="max">
        <route edges="705023783#0 1150927562#0 -995154329#3 -995154329#1 1369024077#0 1101271052#2 1166322819#0 38522039 638541500#0 544759837#0 544759838#0 1125542419#0 48166762#0 172920292#0"/>
    </vehicle>
    <vehicle id="93" type="passenger" depart="930.00" departLane="best" departSpeed="max">
        <route edges="638541495#0 1166322819#0 38522039 638541500#0 544759837#0 544759838#0 1125542419#0 1125542419#1 -369380181#1 -1349935083"/>
    </vehicle>
    <vehicle id="94" type="passenger" depart="940.00" departLane="best" departSpeed="max">
        <route edges="638541495#0 172947338#1 464465211#0 -995154329#3 -995154329#1 -995154329#0"/>
    </vehicle>
    <vehicle id="95" type="passenger" depart="950.00" departLane="best" departSpeed="max">
        <route edges="638541495#0 1166322819#0 38522039 638541500#0 544759837#0 544759838#0 1227562844#0 36332258#0 -36332257#3 -36332257#0 172903807#0 1089717992"/>
    </vehicle>
    <vehicle id="96" type="passenger" depart="960.00" departLane="best" departSpeed="max">
        <route edges="-1093707706 -1093707705#0 1369024077#0 1101271052#2 1166322819#0 38522039 638541500#0 544759837#0 544759838#0 1227562844#0 36332258#0 -36332257#3 1224538501"/>
    </vehicle>
    <vehicle id="97" type="passenger" depart="970.00" departLane="best" departSpeed="max">
        <route edges="328758433#0 1150927563#0 1150927562#0 -995154329#3 -995154329#1 1369024077#0 1101271052#2 1166322819#0 38522039 638541500#0 1101271052#0"/>
    </vehicle>
    <vehicle id="98" type="passenger" depart="980.00" departLane="best" departSpeed="max">
        <route edges="1227562844#0 1308654713"/>
    </vehicle>
    <vehicle id="99" type="passenger" depart="990.00" departLane="best" departSpeed="max">
        <route edges="-213087098#2 124316745#6 124316745#9 124316745#12 327639080#0 635340513#0 325833350#0"/>
    </vehicle>
</routes>
