<?xml version="1.0" encoding="UTF-8"?>

<!-- generated on 2025-10-29 01:33:27.500100 by Eclipse SUMO randomTrips.py UNKNOWN
<configuration>
    <net-file value="whitefield.net.xml"/>
    <output-trip-file value="whitefield.trips.xml"/>
    <trip-attributes value="departLane=&quot;best&quot; departSpeed=&quot;max&quot;"/>
    <vehicle-class value="passenger"/>
    <fringe-factor value="10"/>
    <end value="1000.0"/>
    <period value="10.0"/>
</configuration>
-->

<routes xmlns:xsi="http://www.w3.org/2001/XMLSchema-instance" xsi:noNamespaceSchemaLocation="http://sumo.dlr.de/xsd/routes_file.xsd">
    <vType id="passenger" vClass="passenger"/>
    <trip id="0" depart="0.00" from="1102544423" to="-1111944894" departLane="best" departSpeed="max" type="passenger"/>
    <trip id="1" depart="10.00" from="-158623051#3" to="-546003191#1" departLane="best" departSpeed="max" type="passenger"/>
    <trip id="2" depart="20.00" from="1418245176" to="309670152#0" departLane="best" departSpeed="max" type="passenger"/>
    <trip id="3" depart="30.00" from="546799088" to="-130999870#1" departLane="best" departSpeed="max" type="passenger"/>
    <trip id="4" depart="40.00" from="-390148400" to="-112137006#10" departLane="best" departSpeed="max" type="passenger"/>
    <trip id="5" depart="50.00" from="-130999846" to="1205120877#1" departLane="best" departSpeed="max" type="passenger"/>
    <trip id="6" depart="60.00" from="112137006#0" to="1238006244" departLane="best" departSpeed="max" type="passenger"/>
    <trip id="7" depart="70.00" from="-130999848" to="1312040398" departLane="best" departSpeed="max" type="passenger"/>
    <trip id="8" depart="80.00" from="309670156#1" to="-100402557#1" departLane="best" departSpeed="max" type="passenger"/>
    <trip id="9" depart="90.00" from="309670152#1" to="343745949#1" departLane="best" departSpeed="max" type="passenger"/>
    <trip id="10" depart="100.00" from="-343745949#0" to="-309670156#0" departLane="best" departSpeed="max" type="passenger"/>
    <trip id="11" depart="110.00" from="796258316" to="100107972#9" departLane="best" departSpeed="max" type="passenger"/>
    <trip id="12" depart="120.00" from="-1111935778" to="-1418245176" departLane="best" departSpeed="max" type="passenger"/>
    <trip id="13" depart="130.00" from="37700522#8" to="1373665334" departLane="best" departSpeed="max" type="passenger"/>
    <trip id="14" depart="140.00" from="309670156#0" to="37699851#2" departLane="best" departSpeed="max" type="passenger"/>
    <trip id="15" depart="150.00" from="-695612565" to="796561971" departLane="best" departSpeed="max" type="passenger"/>
    <trip id="16" depart="160.00" from="-37700522#10" to="1294930052#0" departLane="best" departSpeed="max" type="passenger"/>
    <trip id="17" depart="170.00" from="367852746#1" to="158623043#2" departLane="best" departSpeed="max" type="passenger"/>
    <trip id="18" depart="180.00" from="130999835" to="-1206051072" departLane="best" departSpeed="max" type="passenger"/>
    <trip id="19" depart="190.00" from="-130999853" to="-762162704" departLane="best" departSpeed="max" type="passenger"/>
    <trip id="20" depart="200.00" from="-1111933796" to="-546799088" departLane="best" departSpeed="max" type="passenger"/>
    <trip id="21" depart="210.00" from="-1111935782" to="-695626723#1" departLane="best" departSpeed="max" type="passenger"/>
    <trip id="22" depart="220.00" from="110242882#4" to="1102544437" departLane="best" departSpeed="max" type="passenger"/>
    <trip id="23" depart="230.00" from="-158623043#2" to="695626721" departLane="best" departSpeed="max" type="passenger"/>
    <trip id="24" depart="240.00" from="-1201233823" to="37699851#2" departLane="best" departSpeed="max" type="passenger"/>
    <trip id="25" depart="250.00" from="-1165598536#3" to="1102559547" departLane="best" departSpeed="max" type="passenger"/>
    <trip id="26" depart="260.00" from="797057353#0" to="232866079#1" departLane="best" departSpeed="max" type="passenger"/>
    <trip id="27" depart="270.00" from="-695626720" to="309670438" departLane="best" departSpeed="max" type="passenger"/>
    <trip id="28" depart="280.00" from="-130999853" to="-1147929546" departLane="best" departSpeed="max" type="passenger"/>
    <trip id="29" depart="290.00" from="-309670147#1" to="-694986173" departLane="best" departSpeed="max" type="passenger"/>
    <trip id="30" depart="300.00" from="-130126155#12" to="695626724#1" departLane="best" departSpeed="max" type="passenger"/>
    <trip id="31" depart="310.00" from="386937496" to="-796563431#0" departLane="best" departSpeed="max" type="passenger"/>
    <trip id="32" depart="320.00" from="1185891457" to="1102562207" departLane="best" departSpeed="max" type="passenger"/>
    <trip id="33" depart="330.00" from="548156654" to="1111938021" departLane="best" departSpeed="max" type="passenger"/>
    <trip id="34" depart="340.00" from="-150583279#5" to="-546799094" departLane="best" departSpeed="max" type="passenger"/>
    <trip id="35" depart="350.00" from="-695626721" to="-656872282#0" departLane="best" departSpeed="max" type="passenger"/>
    <trip id="36" depart="360.00" from="-727356514" to="695612558" departLane="best" departSpeed="max" type="passenger"/>
    <trip id="37" depart="370.00" from="88162554#0" to="1205213684" departLane="best" departSpeed="max" type="passenger"/>
    <trip id="38" depart="380.00" from="-1111935006" to="-122151904#0" departLane="best" departSpeed="max" type="passenger"/>
    <trip id="39" depart="390.00" from="-1111936411" to="158623056#1" departLane="best" departSpeed="max" type="passenger"/>
    <trip id="40" depart="400.00" from="-1102562208#1" to="1102559549" departLane="best" departSpeed="max" type="passenger"/>
    <trip id="41" depart="410.00" from="815517923#2" to="122151925#2" departLane="best" departSpeed="max" type="passenger"/>
    <trip id="42" depart="420.00" from="796552728#0" to="655521287#1" departLane="best" departSpeed="max" type="passenger"/>
    <trip id="43" depart="430.00" from="-1057129496" to="37699844" departLane="best" departSpeed="max" type="passenger"/>
    <trip id="44" depart="440.00" from="1221939063#3" to="122494279#2" departLane="best" departSpeed="max" type="passenger"/>
    <trip id="45" depart="450.00" from="-158623043#2" to="232866079#1" departLane="best" departSpeed="max" type="passenger"/>
    <trip id="46" depart="460.00" from="-1111936412" to="1111935780" departLane="best" departSpeed="max" type="passenger"/>
    <trip id="47" depart="470.00" from="-546799074#3" to="70971857#10" departLane="best" departSpeed="max" type="passenger"/>
    <trip id="48" depart="480.00" from="386937394#1" to="-656872282#0" departLane="best" departSpeed="max" type="passenger"/>
    <trip id="49" depart="490.00" from="-661792517" to="-375215721" departLane="best" departSpeed="max" type="passenger"/>
    <trip id="50" depart="500.00" from="546799099" to="661713120" departLane="best" departSpeed="max" type="passenger"/>
    <trip id="51" depart="510.00" from="-260359255" to="232342997" departLane="best" departSpeed="max" type="passenger"/>
    <trip id="52" depart="520.00" from="-799776584" to="-309670153" departLane="best" departSpeed="max" type="passenger"/>
    <trip id="53" depart="530.00" from="158623046#0" to="1229277866" departLane="best" departSpeed="max" type="passenger"/>
    <trip id="54" depart="540.00" from="256731064" to="122151926#2" departLane="best" departSpeed="max" type="passenger"/>
    <trip id="55" depart="550.00" from="-100107970#1" to="-797057353#0" departLane="best" departSpeed="max" type="passenger"/>
    <trip id="56" depart="560.00" from="-110242882#7" to="695626719" departLane="best" departSpeed="max" type="passenger"/>
    <trip id="57" depart="570.00" from="426988255#3" to="546799102#0" departLane="best" departSpeed="max" type="passenger"/>
    <trip id="58" depart="580.00" from="-290187541" to="-122151925#0" departLane="best" departSpeed="max" type="passenger"/>
    <trip id="59" depart="590.00" from="426988255#0" to="695626728" departLane="best" departSpeed="max" type="passenger"/>
    <trip id="60" depart="600.00" from="-1111935002" to="1111944898" departLane="best" departSpeed="max" type="passenger"/>
    <trip id="61" depart="610.00" from="158623051#5" to="-256731064" departLane="best" departSpeed="max" type="passenger"/>
    <trip id="62" depart="620.00" from="-655073641#4" to="1259593805#2" departLane="best" departSpeed="max" type="passenger"/>
    <trip id="63" depart="630.00" from="-150583279#8" to="661792517" departLane="best" departSpeed="max" type="passenger"/>
    <trip id="64" depart="640.00" from="-695626705" to="37699851#2" departLane="best" departSpeed="max" type="passenger"/>
    <trip id="65" depart="650.00" from="-122151927#1" to="-796557706" departLane="best" departSpeed="max" type="passenger"/>
    <trip id="66" depart="660.00" from="799547977#0" to="260359253" departLane="best" departSpeed="max" type="passenger"/>
    <trip id="67" depart="670.00" from="-546799008#1" to="122151909" departLane="best" departSpeed="max" type="passenger"/>
    <trip id="68" depart="680.00" from="-1111938021" to="-546003191#1" departLane="best" departSpeed="max" type="passenger"/>
    <trip id="69" depart="690.00" from="-332244567#1" to="130999876#1" departLane="best" departSpeed="max" type="passenger"/>
    <trip id="70" depart="700.00" from="-130999856" to="-546003178" departLane="best" departSpeed="max" type="passenger"/>
    <trip id="71" depart="710.00" from="-1111750988" to="158623057#0" departLane="best" departSpeed="max" type="passenger"/>
    <trip id="72" depart="720.00" from="-130999853" to="695612562" departLane="best" departSpeed="max" type="passenger"/>
    <trip id="73" depart="730.00" from="-130999864#0" to="290187543#17" departLane="best" departSpeed="max" type="passenger"/>
    <trip id="74" depart="740.00" from="-130999833#4" to="-256731065#0" departLane="best" departSpeed="max" type="passenger"/>
    <trip id="75" depart="750.00" from="694986181" to="130999856" departLane="best" departSpeed="max" type="passenger"/>
    <trip id="76" depart="760.00" from="-648496925#4" to="386937553" departLane="best" departSpeed="max" type="passenger"/>
    <trip id="77" depart="770.00" from="309670156#0" to="-37700522#14" departLane="best" departSpeed="max" type="passenger"/>
    <trip id="78" depart="780.00" from="-1111935779" to="1111935778" departLane="best" departSpeed="max" type="passenger"/>
    <trip id="79" depart="790.00" from="-390148400" to="1111938024" departLane="best" departSpeed="max" type="passenger"/>
    <trip id="80" depart="800.00" from="1312954155" to="309670149#1" departLane="best" departSpeed="max" type="passenger"/>
    <trip id="81" depart="810.00" from="796863788#0" to="-1418245176" departLane="best" departSpeed="max" type="passenger"/>
    <trip id="82" depart="820.00" from="-122151917#0" to="1111936412" departLane="best" departSpeed="max" type="passenger"/>
    <trip id="83" depart="830.00" from="-390148400" to="-70971855#0" departLane="best" departSpeed="max" type="passenger"/>
    <trip id="84" depart="840.00" from="-1313153714" to="695626713" departLane="best" departSpeed="max" type="passenger"/>
    <trip id="85" depart="850.00" from="-546799012" to="655784393#1" departLane="best" departSpeed="max" type="passenger"/>
    <trip id="86" depart="860.00" from="-695626714" to="-122151906#0" departLane="best" departSpeed="max" type="passenger"/>
    <trip id="87" depart="870.00" from="89533025#6" to="557049979#1" departLane="best" departSpeed="max" type="passenger"/>
    <trip id="88" depart="880.00" from="796552724" to="695626715" departLane="best" departSpeed="max" type="passenger"/>
    <trip id="89" depart="890.00" from="37700526#3" to="-316174934#0" departLane="best" departSpeed="max" type="passenger"/>
    <trip id="90" depart="900.00" from="-37700522#14" to="815517923#1" departLane="best" departSpeed="max" type="passenger"/>
    <trip id="91" depart="910.00" from="-150583279#8" to="386937394#2" departLane="best" departSpeed="max" type="passenger"/>
    <trip id="92" depart="920.00" from="-546799074#3" to="1111935002" departLane="best" departSpeed="max" type="passenger"/>
    <trip id="93" depart="930.00" from="796258316" to="990748476" departLane="best" departSpeed="max" type="passenger"/>
    <trip id="94" depart="940.00" from="-695626719" to="37699842#1" departLane="best" departSpeed="max" type="passenger"/>
    <trip id="95" depart="950.00" from="-1111945220" to="-796258316" departLane="best" departSpeed="max" type="passenger"/>
    <trip id="96" depart="960.00" from="796552724" to="130999864#2" departLane="best" departSpeed="max" type="passenger"/>
    <trip id="97" depart="970.00" from="-1102562204" to="130999872#1" departLane="best" departSpeed="max" type="passenger"/>
    <trip id="98" depart="980.00" from="-663247269#1" to="655521284" departLane="best" departSpeed="max" type="passenger"/>
    <trip id="99" depart="990.00" from="-1111947061" to="727356514" departLane="best" departSpeed="max" type="passenger"/>
</routes>
