<?xml version="1.0" encoding="UTF-8"?>

<!-- generated on 2025-10-29T01:33:34.913583+05:30 by Eclipse SUMO duarouter v1_24_0+1454-51d0da9119e
<duarouterConfiguration xmlns:xsi="http://www.w3.org/2001/XMLSchema-instance" xsi:noNamespaceSchemaLocation="http://sumo.dlr.de/xsd/duarouterConfiguration.xsd">

    <input>
        <net-file value="yeshwanthpur.net.xml"/>
        <route-files value="yeshwanthpur.trips.xml"/>
    </input>

    <output>
        <output-file value="yeshwanthpur.rou.xml"/>
    </output>

    <report>
        <no-warnings value="true"/>
        <ignore-errors value="true"/>
    </report>

</duarouterConfiguration>
-->

<routes xmlns:xsi="http://www.w3.org/2001/XMLSchema-instance" xsi:noNamespaceSchemaLocation="http://sumo.dlr.de/xsd/routes_file.xsd">
    <vType id="passenger" vClass="passenger"/>
    <vehicle id="0" type="passenger" depart="0.00" departLane="best" departSpeed="max">
        <route edges="36732215 1341451507#0 36732235#0 36732235#1 -994960223#2 -994960223#1 -1184129275"/>
    </vehicle>
    <vehicle id="1" type="passenger" depart="10.00" departLane="best" departSpeed="max">
        <route edges="37932886#0 37932885#9 37932885#10 36732222#1 36732222#2 36732222#4 36732222#5 36732222#6 -1185436563#9 38978179 1301680353 465135511 465135510#0 1416782519 1248258454-AddedOnRampEdge 1248258454 510972415#1 458681913 -1280805514 195557082#1 195557082#2 732279135#0 323930524#0 323930524#3"/>
    </vehicle>
    <vehicle id="2" type="passenger" depart="20.00" departLane="best" departSpeed="max">
        <route edges="38978215#0 -38978212#5 38978216#2 -36732235#9 -36732235#8 -36732235#7 -36732235#6 -36732235#5 -36732234#5 -36732234#4 -36732234#3 -36732234#2 -36732234#1 -36732234#0 36732222#4 36732222#5 36732222#6 -1185436563#9 38978179 1301680353 465135511 465135510#0 1416782519 1248258454-AddedOnRampEdge 1248258454 510972415#1 458681913 -1280805514 195557082#1 195557082#2 37838182#0 -38968993#1 -38968993#0 -195557077#5 -195557077#4 -195557077#0 -195557080#6 -195557080#3 -195557080#1 -195557080#0"/>
    </vehicle>
    <vehicle id="3" type="passenger" depart="30.00" departLane="best" departSpeed="max">
        <route edges="-38978217#1 -38978217#0 994960221 36732235#8 36732235#9 -215430957#1 -1184129275"/>
    </vehicle>
    <vehicle id="4" type="passenger" depart="40.00" departLane="best" departSpeed="max">
        <route edges="-36732218#3 -36732218#2 94440653#1 1185436563#1 1185436563#2 1185436563#4 1185436563#5 1185436563#6 1185436563#7 1185436563#8 1185436563#9 465135509#0 465135509#2 465135509#3 1341451507#0 36732235#0 36732235#1 36732235#3 36732235#4 36732235#5 36732235#6 36732235#7 36732235#8 36732235#9 36732235#11 36732235#12 -465135505#2 1095085814#0 1095085814#1 1095085815"/>
    </vehicle>
    <vehicle id="5" type="passenger" depart="50.00" departLane="best" departSpeed="max">
        <route edges="36732222#0 36732222#1 36732222#2 36732222#4 36732222#5 36732222#6 -1185436563#9 38978179 1301680353 465135511 465135510#0 -1325279535 -1409200823 249906108#0 1188915011#1"/>
    </vehicle>
    <vehicle id="6" type="passenger" depart="60.00" departLane="best" departSpeed="max">
        <route edges="-36732218#3 -36732218#2 -36732218#1 -36732218#0 1092252706#0 1092252706#1 1317535126#0"/>
    </vehicle>
    <vehicle id="7" type="passenger" depart="70.00" departLane="best" departSpeed="max">
        <route edges="380341722#0 380341722#1 1301680354 1227534620 465135511 465135510#0 1416782519 1248258454-AddedOnRampEdge 1248258454 510972415#1 458681913 -1280805514 195557082#1 195557082#2 37838182#0 -38968993#1 -38968993#0 -195557077#5 -195557077#4 -195557077#0 -195557080#6 38968996#0 1316887671 -1095063513"/>
    </vehicle>
    <vehicle id="8" type="passenger" depart="80.00" departLane="best" departSpeed="max">
        <route edges="380341722#0 661838953 107221161#2 1092252704#0 1092252704#1 36732218#0 36732218#1 36732218#2 36732218#3"/>
    </vehicle>
    <vehicle id="9" type="passenger" depart="90.00" departLane="best" departSpeed="max">
        <route edges="-37932895#6 -37932885#6 -37932885#5 -37932885#4 -37932885#3 -37932885#2 -37932885#1 -37932885#0"/>
    </vehicle>
    <vehicle id="10" type="passenger" depart="100.00" departLane="best" departSpeed="max">
        <route edges="50223370#0 50223370#1 50223370#2 -107221161#4 -107221161#1 -107221161#0 1275501901 1301680353 1227534622 249906106#0 249906106#2 36732215 1341451507#0 36732235#0 36732235#1 36732235#3 36732235#4 36732235#5 36732235#6 -37932889#3 -37932889#2 -37932889#1 -37932885#4 -38978218#0"/>
    </vehicle>
    <vehicle id="11" type="passenger" depart="110.00" departLane="best" departSpeed="max">
        <route edges="-1095085813 -37930012#1 36732235#0 36732235#1 36732235#3 36732235#4 -36732234#5 -36732234#4 -36732234#3 -36732234#2 -36732234#1 -36732234#0 36732222#4 36732222#5 36732222#6 -1185436563#9 38978179 1301680353 465135511 465135510#0 1416782519 1248258454-AddedOnRampEdge 1248258454 510972415#1 458681913 -1280805514 195557082#1 326403155#0 -326403155#0"/>
    </vehicle>
    <vehicle id="12" type="passenger" depart="120.00" departLane="best" departSpeed="max">
        <route edges="38978164#0 38978164#1 1317535126#3 1319797138 1317535128#0 1317535128#2 50223370#1 50223370#2 -107221161#4 -107221161#1 -107221161#0 1275501901 1301680353 465135511 465135510#0 1416782519 1248258454-AddedOnRampEdge 1248258454 510972415#1 36731509#0 1353055892#0-AddedOnRampEdge 1353055892#0"/>
    </vehicle>
    <vehicle id="13" type="passenger" depart="130.00" departLane="best" departSpeed="max">
        <route edges="380341722#0 661838953 107221161#2 1317518975#1 1317518975#1-AddedOffRampEdge 1317518975#4 -1317535128#0 36732229#2"/>
    </vehicle>
    <vehicle id="14" type="passenger" depart="140.00" departLane="best" departSpeed="max">
        <route edges="1278171779 1278171778 -107221161#4 -107221161#1 -107221161#0 1275501901 1301680353 465135511 465135510#0 1416782519 1248258454-AddedOnRampEdge 1248258454 510972415#1 458681913 -1280805514 195557082#1 195557082#2 732279135#0 323930524#0 1319792405 743199511"/>
    </vehicle>
    <vehicle id="15" type="passenger" depart="150.00" departLane="best" departSpeed="max">
        <route edges="38978182#2 38978182#3 1185436563#6 1185436563#7 1185436563#8 38978179 1301680353"/>
    </vehicle>
    <vehicle id="16" type="passenger" depart="160.00" departLane="best" departSpeed="max">
        <route edges="378425663#0 36777821#0 -1281911194"/>
    </vehicle>
    <vehicle id="17" type="passenger" depart="170.00" departLane="best" departSpeed="max">
        <route edges="-36732222#6 -36732222#5 -38978185"/>
    </vehicle>
    <vehicle id="18" type="passenger" depart="180.00" departLane="best" departSpeed="max">
        <route edges="-1095085812 36732235#3 36732235#4 -36732234#5 -36732234#4 -36732234#3 -36732234#2 -36732234#1 -36732234#0 36732222#4 36732222#5 36732222#6 -1185436563#9 -1185436563#8 -1185436563#7 -1185436563#6 -1185436563#5 -38978180#1 -38978180#0 107221161#1 -661838953 -380341722#0"/>
    </vehicle>
    <vehicle id="19" type="passenger" depart="190.00" departLane="best" departSpeed="max">
        <route edges="-1095085814#0 465135505#2 -36732235#12 -36732235#11 -36732235#9 -36732235#8 -36732235#7 -36732235#6 -36732235#5 -36732234#5 -36732234#4 -36732234#3 -36732234#2 -36732234#1 -36732234#0 36732222#4 36732222#5 36732222#6 -1185436563#9 -1185436563#8 -1185436563#7 -1185436563#6 -1185436563#5 -38978180#1 -38978180#0"/>
    </vehicle>
    <vehicle id="20" type="passenger" depart="200.00" departLane="best" departSpeed="max">
        <route edges="-38978180#1 -38978180#0 -107221161#0 1275501901 1301680353 1227534622 249906106#0 249906106#2 36732215 1341451507#0 36732235#0 36732235#1 36732235#3 36732235#4 36732235#5 36732235#6 -37932889#3 37932890#0 -37932891#1"/>
    </vehicle>
    <vehicle id="21" type="passenger" depart="210.00" departLane="best" departSpeed="max">
        <route edges="36732222#0 36732222#1 36732222#2 36732222#4 36732222#5 36732222#6 -1185436563#9 38978179 1301680353 465135511 465135510#0 1416782519 1248258454-AddedOnRampEdge 1248258454 510972415#1 36731509#0 1353055892#0-AddedOnRampEdge 1353055892#0"/>
    </vehicle>
    <vehicle id="22" type="passenger" depart="220.00" departLane="best" departSpeed="max">
        <route edges="-1369959680#0 465108621#1 465135505#0 465135505#1 465135505#2 -36732235#12 -36732235#11 -36732235#9 -36732235#8 -36732235#7 -36732235#6 -36732235#5 -36732234#5 -36732234#4 -36732234#3 -36732234#2 -36732234#1 -36732234#0 36732222#4 36732222#5 36732222#6 -1185436563#9 -1185436563#8 -1185436563#7 -1185436563#6 -1185436563#5 -1185436563#4 -1185436563#3 -1185436563#1 -1185436563#0 -36732218#1 -36732218#0 1092252706#0 1092252706#1 1317518974#0 1317518974#1 36732229#2"/>
    </vehicle>
    <vehicle id="23" type="passenger" depart="230.00" departLane="best" departSpeed="max">
        <route edges="-1281911194 1281911194 36777821#4 107221159#0 107221159#2"/>
    </vehicle>
    <vehicle id="24" type="passenger" depart="240.00" departLane="best" departSpeed="max">
        <route edges="94440653#0 94440653#1 1185436563#1 1185436563#2 1185436563#4 1185436563#5 1185436563#6 1185436563#7 1185436563#8 38978179 1301680353 465135511 465135510#0 1416782519 1248258454-AddedOnRampEdge 1248258454 510972415#1 458681913 -1280805514 195557082#1 195557082#2 37838182#0 -38968993#1 -38968993#0 -195557077#5 -195557077#4 -195557077#0 195557075#0"/>
    </vehicle>
    <vehicle id="25" type="passenger" depart="250.00" departLane="best" departSpeed="max">
        <route edges="38978164#0 38978164#1 1317535126#3 1319797138 1317535128#0 1317535128#2 50223370#1 50223370#2 -107221161#4 -107221161#1 -107221161#0 1275501901 1301680353 465135511 465135510#0 1416782519 1248258454-AddedOnRampEdge 1248258454 510972415#1 458681913 378443273#1 378443273#2"/>
    </vehicle>
    <vehicle id="26" type="passenger" depart="260.00" departLane="best" departSpeed="max">
        <route edges="-36732223#0 36732222#2 36732222#4 36732222#5 36732222#6 465135509#0 465135509#2 465135509#3 1341451507#0 36732235#0 36732235#1 -994960223#2 -994960223#1 -1184129275"/>
    </vehicle>
    <vehicle id="27" type="passenger" depart="270.00" departLane="best" departSpeed="max">
        <route edges="-37932889#3 37932890#0 37932890#1 37932890#2 -37932895#3 -36732234#3 -36732234#2 -36732234#1 -36732234#0 36732222#4 36732222#5 36732222#6 -1185436563#9 -1185436563#8 -1185436563#7 -1185436563#6 -1185436563#5 -1185436563#4 -1185436563#3 -1185436563#1 -1185436563#0 -36732218#1 -36732218#0 1092252706#0 1092252706#1 1317535126#0 -38978164#2 -38978164#0"/>
    </vehicle>
    <vehicle id="28" type="passenger" depart="280.00" departLane="best" departSpeed="max">
        <route edges="-36732218#2 94440653#1 1185436563#1 1185436563#2 1185436563#4 1185436563#5 1185436563#6 1185436563#7 1185436563#8 1185436563#9 465135509#0 465135509#2 465135509#3 1341451506#2 249906106#4 499294491-AddedOnRampEdge 499294491 400449304"/>
    </vehicle>
    <vehicle id="29" type="passenger" depart="290.00" departLane="best" departSpeed="max">
        <route edges="38978188 1185436563#1 1185436563#2 1185436563#4 1185436563#5 1185436563#6 1185436563#7 1185436563#8 1185436563#9 465135509#0 465135509#2 465135509#3 1341451507#0 36732235#0 36732235#1 36732235#3 36732235#4 36732235#5 36732235#6 36732235#7 36732235#8 36732235#9 -38978216#2 -38978216#1 -38978216#0"/>
    </vehicle>
    <vehicle id="30" type="passenger" depart="300.00" departLane="best" departSpeed="max">
        <route edges="36732222#1 36732222#2 36732222#4 36732222#5 36732222#6 465135509#0 1095063490"/>
    </vehicle>
    <vehicle id="31" type="passenger" depart="310.00" departLane="best" departSpeed="max">
        <route edges="38978218#0 37932885#4 37932889#1 37932889#2 37932889#3 -36732235#6 -36732235#5 -36732235#4 -36732235#3 -994960223#2 1095085811"/>
    </vehicle>
    <vehicle id="32" type="passenger" depart="320.00" departLane="best" departSpeed="max">
        <route edges="-37838182#11 -37838182#10 38968969#0 -38968968#1 -38968968#0"/>
    </vehicle>
    <vehicle id="33" type="passenger" depart="330.00" departLane="best" departSpeed="max">
        <route edges="1341451506#1 93585392#1 -36732234#2 -36732234#1 -36732234#0 36732222#4 36732222#5 36732222#6 -1185436563#9 -1185436563#8 -1185436563#7 -1185436563#6 -1185436563#5 -1185436563#4 -1185436563#3 -1185436563#1 -1185436563#0 -36732218#1 -36732218#0 1092252706#0 1092252706#1 1317535126#0 1317535126#3 1319797138 1317535128#0 1317535128#2 50223370#1 1278171779 -38978163#1"/>
    </vehicle>
    <vehicle id="34" type="passenger" depart="340.00" departLane="best" departSpeed="max">
        <route edges="-38978212#6 -38978215#0 -36732235#11 -36732235#9 -36732235#8 -36732235#7 -36732235#6 -36732235#5 -36732235#4 -36732235#3 -36732235#1 38978194 -37932895#0"/>
    </vehicle>
    <vehicle id="35" type="passenger" depart="350.00" departLane="best" departSpeed="max">
        <route edges="994960221 36732235#8 36732235#9 36732235#11 36732235#12 -465135505#2 1095085814#0 1095085817"/>
    </vehicle>
    <vehicle id="36" type="passenger" depart="360.00" departLane="best" departSpeed="max">
        <route edges="-1095085813 -37930012#1 36732235#0 36732235#1 36732235#3 36732235#4 -36732234#5 -36732234#4 -36732234#3 -36732234#2 -36732234#1 -36732234#0 36732222#4 36732222#5 36732222#6 -1185436563#9 38978179 1301680353 465135511 465135510#0 1416782519 1248258454-AddedOnRampEdge 1248258454 510972415#1 458681913 -1280805514 195557082#1 195557082#2 37838182#0 37838182#3 37838182#7 -1317499227"/>
    </vehicle>
    <vehicle id="37" type="passenger" depart="370.00" departLane="best" departSpeed="max">
        <route edges="-1095085814#2 -1095085814#1 -1095085814#0 465135505#2 -36732235#12 -36732235#11 -36732235#9 -36732235#8 -36732235#7 -36732235#6 -36732235#5 -36732234#5 -36732234#4 -36732234#3 -36732234#2 -36732234#1 -36732234#0 36732222#4 36732222#5 36732222#6 -1185436563#9 38978179 1301680353 465135511 465135510#0 1416782519 1248258454-AddedOnRampEdge 1248258454 510972415#1 458681913 -1280805514 195557082#1 326403155#0 1372271413"/>
    </vehicle>
    <vehicle id="38" type="passenger" depart="380.00" departLane="best" departSpeed="max">
        <route edges="38033041#0 149418887#0 510972415#1 458681913 -1280805514 195557082#1 195557082#2 37838182#0 37838182#3 37838182#7 37838182#8 37838182#9 38968969#0 -38968968#1 1095074791"/>
    </vehicle>
    <vehicle id="39" type="passenger" depart="390.00" departLane="best" departSpeed="max">
        <route edges="-1095085807 -36732235#5 -36732234#5 -36732234#4 -36732234#3 -36732234#2 -36732234#1 -36732234#0 36732222#4 36732222#5 36732222#6 -1185436563#9 -1185436563#8 -1185436563#7 -1185436563#6 -1185436563#5 -38978180#1 -38978180#0 -107221161#0 107221161#0"/>
    </vehicle>
    <vehicle id="40" type="passenger" depart="400.00" departLane="best" departSpeed="max">
        <route edges="94440653#1 1185436563#1 1185436563#2 1185436563#4 1185436563#5 1185436563#6 1185436563#7 1185436563#8 38978179 1301680353 465135511 107221159#0 107221159#2 113793853#1"/>
    </vehicle>
    <vehicle id="41" type="passenger" depart="410.00" departLane="best" departSpeed="max">
        <route edges="736384978 37838182#0 -38968993#1 -38968993#0 -195557077#5 -195557077#4 -195557077#0 195557075#0 195557075#1 38968994#0"/>
    </vehicle>
    <vehicle id="42" type="passenger" depart="420.00" departLane="best" departSpeed="max">
        <route edges="-1095063490 -465135509#0 -1185436563#9 -1185436563#8 -1185436563#7 -1185436563#6 -1185436563#5 -1185436563#4 -1185436563#3 -1185436563#1 -1185436563#0 -36732218#1 -36732218#0 1092252706#0 1092252706#1 1317518974#0 1317518974#1 36732229#2"/>
    </vehicle>
    <vehicle id="43" type="passenger" depart="430.00" departLane="best" departSpeed="max">
        <route edges="36732235#8 -36732235#8 -36732235#7 -36732235#6 -36732235#5 -36732234#5 -36732234#4 -36732234#3 -36732234#2 -36732234#1 -36732234#0 36732222#4 36732222#5 36732222#6 -1185436563#9 -1185436563#8 -1185436563#7 -1185436563#6 -1185436563#5 -1185436563#4 -1185436563#3 1185436563#2"/>
    </vehicle>
    <vehicle id="44" type="passenger" depart="440.00" departLane="best" departSpeed="max">
        <route edges="-37838182#11 -195557073 195557075#0 195557075#1"/>
    </vehicle>
    <vehicle id="45" type="passenger" depart="450.00" departLane="best" departSpeed="max">
        <route edges="-1095085814#2 -1095085814#1 -1095085814#0 465135505#2 -36732235#12 -36732235#11 -36732235#9 -36732235#8 -36732235#7 -36732235#6 -36732235#5 -36732234#5 -36732234#4 -36732234#3 -36732234#2 -36732234#1 -36732234#0 36732222#4 36732222#5 36732222#6 -1185436563#9 -1185436563#8 -1185436563#7 -1185436563#6 -1185436563#5 -1185436563#4 -1185436563#3 -1185436563#1 -1185436563#0 -36732218#1 -36732218#0 1092252706#0 1092252706#1 1317535126#0 -38978164#2 1095078932"/>
    </vehicle>
    <vehicle id="46" type="passenger" depart="460.00" departLane="best" departSpeed="max">
        <route edges="38978188 -1185436563#0 -36732218#1 -36732218#0 1092252706#0 1092252706#1 1317535126#0 1317535126#3 1319797138 1317535128#0 1317535128#2 50223370#1 1278171779 -38978163#1"/>
    </vehicle>
    <vehicle id="47" type="passenger" depart="470.00" departLane="best" departSpeed="max">
        <route edges="1184129275 215430957#1 -36732235#9 -36732235#8 -36732235#7 -36732235#6 -36732235#5 -36732234#5 -36732234#4 -36732234#3 -36732234#2 -37932886#1 -37932886#0"/>
    </vehicle>
    <vehicle id="48" type="passenger" depart="480.00" departLane="best" departSpeed="max">
        <route edges="38978218#0 37932885#4 37932885#5 37932885#6 37932885#7 37932885#8 37932885#9 37932885#10 36732222#1 36732222#2 36732222#4 36732222#5 -38978184 38978182#3 38978182#4 38978180#1"/>
    </vehicle>
    <vehicle id="49" type="passenger" depart="490.00" departLane="best" departSpeed="max">
        <route edges="-37932883#2 37932885#10 36732222#1 36732222#2 36732222#4 36732222#5 36732222#6 -1185436563#9 38978179 1301680353 465135511 465135510#0 1416782519 1248258454-AddedOnRampEdge 1248258454 510972415#1 458681913 -1280805514 195557082#1 195557082#2 37838182#0 -38968993#1 -38968993#0 -195557077#5 -195557077#4 -195557077#0 195557073"/>
    </vehicle>
    <vehicle id="50" type="passenger" depart="500.00" departLane="best" departSpeed="max">
        <route edges="216610395#0 216610395#0-AddedOffRampEdge 240501012#0 1162867125 406674055#0-AddedOnRampEdge 406674055#0 406674055#0-AddedOffRampEdge 249906101#0 249906108#0 1188915011#1 1301680354 1227534620 1227534622 465135508 -36732222#6 -36732222#5 -36732222#4 -36732222#2 -36732222#1 -37932885#10 -37932883#1"/>
    </vehicle>
    <vehicle id="51" type="passenger" depart="510.00" departLane="best" departSpeed="max">
        <route edges="37932889#2 37932889#3 -36732235#6 -36732235#5 -36732234#5 -36732234#4 -36732234#3 -36732234#2 -36732234#1 -36732234#0 36732222#4 36732222#5 36732222#6 -1185436563#9 -1185436563#8 -1185436563#7 -1185436563#6 -1185436563#5 1185436563#5"/>
    </vehicle>
    <vehicle id="52" type="passenger" depart="520.00" departLane="best" departSpeed="max">
        <route edges="37932895#0 37932895#1 37932895#2 -36732234#3 -36732234#2 -36732234#1 -36732234#0 36732222#4 36732222#5 36732222#6 -1185436563#9 38978179 1301680353 465135511 107221159#0 107221159#2 113793853#1"/>
    </vehicle>
    <vehicle id="53" type="passenger" depart="530.00" departLane="best" departSpeed="max">
        <route edges="-107221161#0 1275501901 1301680353 1227534622 249906106#0 249906106#2 36732215 1341451507#0 36732235#0 36732235#1 36732235#3 36732235#4 36732235#5 36732235#6 36732235#7 36732235#8 36732235#9 -38978216#2 -38978216#1 -38978216#0"/>
    </vehicle>
    <vehicle id="54" type="passenger" depart="540.00" departLane="best" departSpeed="max">
        <route edges="38978188 1185436563#1 1185436563#2 1185436563#4 1185436563#5 1185436563#6 1185436563#7 1185436563#8 1185436563#9 -36732222#6 -36732222#5 -36732222#4 -36732222#2 -36732222#1 -37932885#10 -37932885#9 -37932885#8 -37932885#7 37932895#6"/>
    </vehicle>
    <vehicle id="55" type="passenger" depart="550.00" departLane="best" departSpeed="max">
        <route edges="-37932885#7 37932885#7 37932885#8 37932885#9 37932885#10 36732222#1 36732222#2 36732222#4 36732222#5 36732222#6 -1185436563#9 38978179 1301680353 465135511 465135510#0 -1325279535 -1409200823"/>
    </vehicle>
    <vehicle id="56" type="passenger" depart="560.00" departLane="best" departSpeed="max">
        <route edges="38978188 1185436563#1 1185436563#2 1185436563#4 1185436563#5 1185436563#6 1185436563#7 1185436563#8 1185436563#9 465135509#0 465135509#2 465135509#3 1341451506#2 249906106#4 499294491-AddedOnRampEdge 499294491 400449304"/>
    </vehicle>
    <vehicle id="57" type="passenger" depart="570.00" departLane="best" departSpeed="max">
        <route edges="-1095085812 36732235#3 36732235#4 36732235#5 36732235#6 36732235#7 36732235#8 36732235#9 36732235#11 36732235#12 -465135505#2 1095085814#0 1095085814#1 1095085814#2"/>
    </vehicle>
    <vehicle id="58" type="passenger" depart="580.00" departLane="best" departSpeed="max">
        <route edges="-1095085811 994960223#2 36732235#3 36732235#4 -36732234#5 -36732234#4 -36732234#3 -36732234#2 -36732234#1 -36732234#0 36732222#4 36732222#5 36732222#6 -1185436563#9 38978179 1301680353 465135511 465135510#0 1416782519 1248258454-AddedOnRampEdge 1248258454 510972415#1 458681913 -1280805514 195557082#1 195557082#2 37838182#0 37838182#3 37838182#7 37838182#8 37838182#9 37838182#10 37838182#11"/>
    </vehicle>
    <vehicle id="59" type="passenger" depart="590.00" departLane="best" departSpeed="max">
        <route edges="37932890#1 -1095085808 -36732234#4"/>
    </vehicle>
    <vehicle id="60" type="passenger" depart="600.00" departLane="best" departSpeed="max">
        <route edges="107221159#8 1095561488#0 1095561488#2 465135510#0 1416782519 1248258454-AddedOnRampEdge 1248258454"/>
    </vehicle>
    <vehicle id="61" type="passenger" depart="610.00" departLane="best" departSpeed="max">
        <route edges="-38978217#1 -38978217#0 994960221 -36732235#7 -36732235#6 -36732235#5 -36732235#4 -36732235#3 -36732235#1 38978194 -37932895#0"/>
    </vehicle>
    <vehicle id="62" type="passenger" depart="620.00" departLane="best" departSpeed="max">
        <route edges="1301680353 1227534622 249906106#0 1281911194 36777821#4 1275215965 1275501903 107221161#0 107221161#1 107221161#2 1317518975#1 1317518975#1-AddedOffRampEdge 1317518975#4 -1317535128#0 36732229#2"/>
    </vehicle>
    <vehicle id="63" type="passenger" depart="630.00" departLane="best" departSpeed="max">
        <route edges="94440653#0 94440653#1 1185436563#1 1185436563#2 1185436563#4 1185436563#5 1185436563#6 1185436563#7 1185436563#8 38978179 1301680353 465135511 465135510#0 1416782519 1248258454-AddedOnRampEdge 1248258454 510972415#1 458681913 -1280805514 195557082#1 195557082#2 37838182#0 -38968993#1 -38968993#0 187045578 195557082#0"/>
    </vehicle>
    <vehicle id="64" type="passenger" depart="640.00" departLane="best" departSpeed="max">
        <route edges="-465135505#1 465135505#1 1095085814#0 1095085817"/>
    </vehicle>
    <vehicle id="65" type="passenger" depart="650.00" departLane="best" departSpeed="max">
        <route edges="-1095085815 -1095085814#1 -1095085814#0 465135505#2 -36732235#12 -36732235#11 -36732235#9 -36732235#8 -36732235#7 -37932889#3 37932890#0 37932890#1 37932890#2 -37932895#3"/>
    </vehicle>
    <vehicle id="66" type="passenger" depart="660.00" departLane="best" departSpeed="max">
        <route edges="-37932895#6 37932885#7 37932885#8 37932885#9 37932885#10 36732222#1 36732222#2 36732222#4 36732222#5 36732222#6 -1185436563#9 -1185436563#8 -1185436563#7 -1185436563#6 -1185436563#5 -1185436563#4 -1185436563#3 -1185436563#1 -1185436563#0 -36732218#1 -36732218#0 1092252706#0 1092252706#1 1317535126#0 1317535126#3 1317535125"/>
    </vehicle>
    <vehicle id="67" type="passenger" depart="670.00" departLane="best" departSpeed="max">
        <route edges="-36732223#1 -36732223#0 36732222#2 36732234#0 36732234#1 36732234#2 36732234#3 -37932895#2 -37932895#1 -37932895#0"/>
    </vehicle>
    <vehicle id="68" type="passenger" depart="680.00" departLane="best" departSpeed="max">
        <route edges="-1095085811 994960223#2 36732235#3 36732235#4 -36732234#5 -36732234#4 -36732234#3 -36732234#2 -36732234#1 -36732234#0 36732222#4 36732222#5 36732222#6 -1185436563#9 38978179 1301680353 465135511 465135510#0 1416782519 1248258454-AddedOnRampEdge 1248258454 510972415#1 458681913 -1280805514 195557082#1 326403155#0 1372271413"/>
    </vehicle>
    <vehicle id="69" type="passenger" depart="690.00" departLane="best" departSpeed="max">
        <route edges="-36732223#0 36732222#2 36732234#0 36732234#1 36732234#2 36732234#3 36732234#4 36732234#5 36732235#5 36732235#6 36732235#7 36732235#8 36732235#9 36732235#11 38978215#0 38978212#6"/>
    </vehicle>
    <vehicle id="70" type="passenger" depart="700.00" departLane="best" departSpeed="max">
        <route edges="38978182#0 38978182#1 38978182#2 38978182#3 1185436563#6 1185436563#7 1185436563#8 38978179 1301680353 465135511 465135510#0 1416782519 1248258454-AddedOnRampEdge 1248258454 510972415#1 458681913 -1280805514 195557082#1 195557082#2 37838182#0 -38968993#1 -38968993#0 187045578 -187045578"/>
    </vehicle>
    <vehicle id="71" type="passenger" depart="710.00" departLane="best" departSpeed="max">
        <route edges="-36732223#3 -36732218#2 -36732218#1 -36732218#0 1092252706#0 1092252706#1 -107221161#4 -107221161#1 -107221161#0 1275501901 1301680353 465135511 465135510#0 1416782519 1248258454-AddedOnRampEdge 1248258454 510972415#1 458681913 -1280805514 195557082#1 195557082#2 732279135#0 323930524#0 323930524#3"/>
    </vehicle>
    <vehicle id="72" type="passenger" depart="720.00" departLane="best" departSpeed="max">
        <route edges="-36732218#3 -36732218#2 94440653#1 1185436563#1 1185436563#2 1185436563#4 1185436563#5 1185436563#6 1185436563#7 1185436563#8 1185436563#9 465135509#0 465135509#2 465135509#3 1341451507#0 36732235#0 36732235#1 36732235#3 36732235#4 36732235#5 36732235#6 36732235#7 36732235#8 36732235#9 36732235#11 -36732235#11"/>
    </vehicle>
    <vehicle id="73" type="passenger" depart="730.00" departLane="best" departSpeed="max">
        <route edges="454483811 28071061 1353055891 406674055#0-AddedOnRampEdge 406674055#0 406674055#0-AddedOffRampEdge 249906101#0 1409200823 1325279535 1416782519 1248258454-AddedOnRampEdge 1248258454 1278196853#0"/>
    </vehicle>
    <vehicle id="74" type="passenger" depart="740.00" departLane="best" departSpeed="max">
        <route edges="380341722#0 380341722#1 1301680354 1227534620 1227534622 249906106#0 249906106#2 36732215 1341451507#0 36732235#0 36732235#1 36732235#3 36732235#4 36732235#5 36732235#6 -37932889#3 -37932889#2 -37932889#1 -37932889#0"/>
    </vehicle>
    <vehicle id="75" type="passenger" depart="750.00" departLane="best" departSpeed="max">
        <route edges="-1095085813 -37930012#1 36732235#0 36732235#1 36732235#3 36732235#4 -36732234#5 -36732234#4 -36732234#3 -36732234#2 -36732234#1 -36732234#0 36732222#4 36732222#5 36732222#6 -1185436563#9 -1185436563#8 -1185436563#7 -1185436563#6 -1185436563#5 -1185436563#4 -1185436563#3 -1185436563#1 -1185436563#0 -36732218#1 -36732218#0 1092252706#0 1092252706#1 1317535126#0 -38978164#2 1095078932"/>
    </vehicle>
    <vehicle id="76" type="passenger" depart="760.00" departLane="best" departSpeed="max">
        <route edges="-38978217#1 -38978217#0 994960221 -36732235#7 -36732235#6 -36732235#5 -36732235#4 -36732235#3 1095085812"/>
    </vehicle>
    <vehicle id="77" type="passenger" depart="770.00" departLane="best" departSpeed="max">
        <route edges="37932885#4 37932885#5 37932885#6 37932885#7 37932885#8 37932885#9 37932885#10 36732222#1 36732222#2 36732222#4 36732222#5 36732222#6 -1185436563#9 38978179 1301680353 465135511 465135510#0 1416782519 1248258454-AddedOnRampEdge 1248258454 510972415#1 458681913 -1280805514 195557082#1 195557082#2 732279135#0 323930524#0 323930524#3"/>
    </vehicle>
    <vehicle id="78" type="passenger" depart="780.00" departLane="best" departSpeed="max">
        <route edges="94440653#0 94440653#1 1185436563#1 1185436563#2 1185436563#4 1185436563#5 1185436563#6 1185436563#7 1185436563#8 38978179 1301680353 465135511 465135510#0 1416782519 1248258454-AddedOnRampEdge 1248258454 510972415#1 458681913 -1280805514 195557082#1 195557082#2 37838182#0 37838182#3 37838182#7 -326403156#1"/>
    </vehicle>
    <vehicle id="79" type="passenger" depart="790.00" departLane="best" departSpeed="max">
        <route edges="-38978212#6 -38978212#5 -38978212#4 -38978212#3 -38978212#1 -38978218#1 -38978218#0"/>
    </vehicle>
    <vehicle id="80" type="passenger" depart="800.00" departLane="best" departSpeed="max">
        <route edges="38978182#2 38978182#3 1185436563#6 1185436563#7 1185436563#8 38978179 1301680353 465135511 465135510#0 1416782519 1248258454-AddedOnRampEdge 1248258454 510972415#1 458681913 -1280805514 195557082#1 195557082#2 37838182#0 37838182#3 37838182#7 37838182#8 37838182#9 38968969#0 -38968968#1 -38968968#0"/>
    </vehicle>
    <vehicle id="81" type="passenger" depart="810.00" departLane="best" departSpeed="max">
        <route edges="-38978217#1 37932885#3 37932885#4 37932885#5 37932885#6 37932885#7 37932885#8 37932885#9 37932885#10 36732222#1 36732222#2 36732222#4 36732222#5 36732222#6 -1185436563#9 -1185436563#8 -1185436563#7 -1185436563#6 -1185436563#5 -38978180#1"/>
    </vehicle>
    <vehicle id="82" type="passenger" depart="820.00" departLane="best" departSpeed="max">
        <route edges="-36732234#5 1095085808 -37932890#1 -37932890#0 -37932889#2 38978212#0 38978212#1 38978217#0"/>
    </vehicle>
    <vehicle id="83" type="passenger" depart="830.00" departLane="best" departSpeed="max">