<?xml version="1.0" encoding="UTF-8"?>

<!-- generated on 2025-10-29T01:33:33.978314+05:30 by Eclipse SUMO netconvert v1_24_0+1454-51d0da9119e
<netconvertConfiguration xmlns:xsi="http://www.w3.org/2001/XMLSchema-instance" xsi:noNamespaceSchemaLocation="http://sumo.dlr.de/xsd/netconvertConfiguration.xsd">

    <input>
        <osm-files value="yeshwanthpur.osm"/>
    </input>

    <output>
        <output-file value="yeshwanthpur.net.xml"/>
    </output>

    <projection>
        <proj.utm value="true"/>
    </projection>

    <processing>
        <geometry.remove value="true"/>
    </processing>

    <tls_building>
        <tls.discard-simple value="true"/>
        <tls.join value="true"/>
        <tls.guess-signals value="true"/>
    </tls_building>

    <ramp_guessing>
        <ramps.guess value="true"/>
    </ramp_guessing>

    <edge_removal>
        <keep-edges.by-vclass value="passenger"/>
        <remove-edges.isolated value="true"/>
    </edge_removal>

    <junctions>
        <junctions.join value="true"/>
    </junctions>

</netconvertConfiguration>
-->

<net version="1.20" junctionCornerDetail="5" limitTurnSpeed="5.50" xmlns:xsi="http://www.w3.org/2001/XMLSchema-instance" xsi:noNamespaceSchemaLocation="http://sumo.dlr.de/xsd/net_file.xsd">

    <location netOffset="-776272.85,-1439811.34" convBoundary="0.00,0.00,1843.70,2145.55" origBoundary="77.547089,12.976385,77.706340,13.250730" projParameter="+proj=utm +zone=43 +ellps=WGS84 +datum=WGS84 +units=m +no_defs"/>

    <type id="highway.living_street" priority="2" numLanes="1" speed="2.78" disallow="tram rail_urban rail rail_electric rail_fast ship container cable_car subway aircraft wheelchair scooter drone" oneway="0"/>
    <type id="highway.primary" priority="12" numLanes="2" speed="27.78" disallow="tram rail_urban rail rail_electric rail_fast ship container cable_car subway aircraft wheelchair scooter drone" oneway="0"/>
    <type id="highway.primary_link" priority="7" numLanes="1" speed="22.22" disallow="tram rail_urban rail rail_electric rail_fast ship container cable_car subway aircraft wheelchair scooter drone" oneway="0"/>
    <type id="highway.residential" priority="3" numLanes="1" speed="13.89" disallow="tram rail_urban rail rail_electric rail_fast ship container cable_car subway aircraft wheelchair scooter drone" oneway="0"/>
    <type id="highway.secondary" priority="11" numLanes="1" speed="27.78" disallow="tram rail_urban rail rail_electric rail_fast ship container cable_car subway aircraft wheelchair scooter drone" oneway="0"/>
    <type id="highway.secondary_link" priority="6" numLanes="1" speed="22.22" disallow="tram rail_urban rail rail_electric rail_fast ship container cable_car subway aircraft wheelchair scooter drone" oneway="0"/>
    <type id="highway.tertiary" priority="10" numLanes="1" speed="22.22" disallow="tram rail_urban rail rail_electric rail_fast ship container cable_car subway aircraft wheelchair scooter drone" oneway="0"/>
    <type id="highway.tertiary_link" priority="5" numLanes="1" speed="22.22" disallow="tram rail_urban rail rail_electric rail_fast ship container cable_car subway aircraft wheelchair scooter drone" oneway="0"/>
    <type id="highway.trunk" priority="13" numLanes="2" speed="27.78" disallow="pedestrian bicycle tram rail_urban rail rail_electric rail_fast ship container cable_car subway aircraft wheelchair scooter drone" oneway="0"/>
    <type id="highway.trunk_link" priority="8" numLanes="1" speed="22.22" disallow="pedestrian bicycle tram rail_urban rail rail_electric rail_fast ship container cable_car subway aircraft wheelchair scooter drone" oneway="0"/>
    <type id="highway.unclassified" priority="4" numLanes="1" speed="13.89" disallow="tram rail_urban rail rail_electric rail_fast ship container cable_car subway aircraft wheelchair scooter drone" oneway="0"/>

    <edge id=":10003390777_0" function="internal">
        <lane id=":10003390777_0_0" index="0" disallow="tram rail_urban rail rail_electric rail_fast ship container cable_car subway aircraft wheelchair scooter drone" speed="6.51" length="2.98" shape="966.70,1046.69 969.38,1045.40"/>
    </edge>
    <edge id=":10003390777_1" function="internal">
        <lane id=":10003390777_1_0" index="0" disallow="tram rail_urban rail rail_electric rail_fast ship container cable_car subway aircraft wheelchair scooter drone" speed="3.65" length="2.34" shape="966.70,1046.69 967.04,1045.29 967.66,1044.64"/>
    </edge>
    <edge id=":10003390777_4" function="internal">
        <lane id=":10003390777_4_0" index="0" disallow="tram rail_urban rail rail_electric rail_fast ship container cable_car subway aircraft wheelchair scooter drone" speed="3.65" length="2.34" shape="967.66,1044.64 968.54,1044.74 969.71,1045.59"/>
    </edge>
    <edge id=":10003390777_2" function="internal">
        <lane id=":10003390777_2_0" index="0" disallow="tram rail_urban rail rail_electric rail_fast ship container cable_car subway aircraft wheelchair scooter drone" speed="3.91" length="3.16" shape="966.94,1046.16 967.74,1046.58 968.42,1046.60 968.96,1046.20 969.38,1045.40"/>
    </edge>
    <edge id=":10003390777_3" function="internal">
        <lane id=":10003390777_3_0" index="0" disallow="tram rail_urban rail rail_electric rail_fast ship container cable_car subway aircraft wheelchair scooter drone" speed="7.14" length="2.83" shape="966.94,1046.16 969.71,1045.59"/>
    </edge>
    <edge id=":10028688880_0" function="internal">
        <lane id=":10028688880_0_0" index="0" disallow="tram rail_urban rail rail_electric rail_fast ship container cable_car subway aircraft wheelchair scooter drone" speed="22.22" length="14.72" shape="1143.54,927.45 1131.98,936.58"/>
    </edge>
    <edge id=":10028688880_1" function="internal">
        <lane id=":10028688880_1_0" index="0" disallow="tram rail_urban rail rail_electric rail_fast ship container cable_car subway aircraft wheelchair scooter drone" speed="7.56" length="4.48" shape="1143.54,927.45 1139.67,929.70"/>
    </edge>
    <edge id=":10028688880_2" function="internal">
        <lane id=":10028688880_2_0" index="0" disallow="tram rail_urban rail rail_electric rail_fast ship container cable_car subway aircraft wheelchair scooter drone" speed="3.65" length="1.44" shape="1143.54,927.45 1142.10,927.57"/>
    </edge>
    <edge id=":10028688880_9" function="internal">
        <lane id=":10028688880_9_0" index="0" disallow="tram rail_urban rail rail_electric rail_fast ship container cable_car subway aircraft wheelchair scooter drone" speed="7.56" length="11.07" shape="1139.67,929.70 1136.38,929.89 1133.67,928.02 1131.53,924.09"/>
    </edge>
    <edge id=":10028688880_10" function="internal">
        <lane id=":10028688880_10_0" index="0" disallow="tram rail_urban rail rail_electric rail_fast ship container cable_car subway aircraft wheelchair scooter drone" speed="3.65" length="3.23" shape="1142.10,927.57 1141.29,927.19 1141.11,926.31 1141.56,924.94"/>
    </edge>
    <edge id=":10028688880_3" function="internal">
        <lane id=":10028688880_3_0" index="0" disallow="tram rail_urban rail rail_electric rail_fast ship container cable_car subway aircraft wheelchair scooter drone" speed="5.94" length="9.09" shape="1134.53,922.97 1135.78,925.27 1137.37,926.37 1139.29,926.26 1141.56,924.94"/>
    </edge>
    <edge id=":10028688880_4" function="internal">
        <lane id=":10028688880_4_0" index="0" disallow="tram rail_urban rail rail_electric rail_fast ship container cable_car subway aircraft wheelchair scooter drone" speed="9.30" length="14.89" shape="1134.53,922.97 1135.62,927.18 1135.56,930.85 1134.35,933.99 1131.98,936.58"/>
    </edge>
    <edge id=":10028688880_5" function="internal">
        <lane id=":10028688880_5_0" index="0" disallow="tram rail_urban rail rail_electric rail_fast ship container cable_car subway aircraft wheelchair scooter drone" speed="3.65" length="4.67" shape="1134.53,922.97 1134.20,924.38 1133.59,925.03 1132.70,924.93 1131.53,924.09"/>
    </edge>
    <edge id=":10028688880_6" function="internal">
        <lane id=":10028688880_6_0" index="0" disallow="tram rail_urban rail rail_electric rail_fast ship container cable_car subway aircraft wheelchair scooter drone" speed="8.01" length="10.84" shape="1130.00,934.07 1131.62,932.24 1132.41,929.97 1132.38,927.25 1131.53,924.09"/>
    </edge>
    <edge id=":10028688880_7" function="internal">
        <lane id=":10028688880_7_0" index="0" disallow="tram rail_urban rail rail_electric rail_fast ship container cable_car subway aircraft wheelchair scooter drone" speed="22.22" length="14.73" shape="1130.00,934.07 1141.56,924.94"/>
    </edge>
    <edge id=":10028688880_8" function="internal">
        <lane id=":10028688880_8_0" index="0" disallow="tram rail_urban rail rail_electric rail_fast ship container cable_car subway aircraft wheelchair scooter drone" speed="3.65" length="1.44" shape="1130.00,934.07 1131.44,933.95"/>
    </edge>
    <edge id=":10028688880_11" function="internal">
        <lane id=":10028688880_11_0" index="0" disallow="tram rail_urban rail rail_electric rail_fast ship container cable_car subway aircraft wheelchair scooter drone" speed="3.65" length="3.23" shape="1131.44,933.95 1132.25,934.33 1132.43,935.21 1131.98,936.58"/>
    </edge>
    <edge id=":10028688881_0" function="internal">
        <lane id=":10028688881_0_0" index="0" disallow="tram rail_urban rail rail_electric rail_fast ship container cable_car subway aircraft wheelchair scooter drone" speed="22.22" length="14.76" shape="1156.03,917.58 1144.46,926.73"/>
    </edge>
    <edge id=":10028688881_1" function="internal">
        <lane id=":10028688881_1_0" index="0" disallow="tram rail_urban rail rail_electric rail_fast ship container cable_car subway aircraft wheelchair scooter drone" speed="7.55" length="4.50" shape="1156.03,917.58 1152.14,919.85"/>
    </edge>
    <edge id=":10028688881_2" function="internal">
        <lane id=":10028688881_2_0" index="0" disallow="tram rail_urban rail rail_electric rail_fast ship container cable_car subway aircraft wheelchair scooter drone" speed="3.65" length="1.44" shape="1156.03,917.58 1154.60,917.70"/>
    </edge>
    <edge id=":10028688881_9" function="internal">
        <lane id=":10028688881_9_0" index="0" disallow="tram rail_urban rail rail_electric rail_fast ship container cable_car subway aircraft wheelchair scooter drone" speed="7.55" length="11.10" shape="1152.14,919.85 1148.85,920.04 1146.15,918.14 1144.05,914.15"/>
    </edge>
    <edge id=":10028688881_10" function="internal">
        <lane id=":10028688881_10_0" index="0" disallow="tram rail_urban rail rail_electric rail_fast ship container cable_car subway aircraft wheelchair scooter drone" speed="3.65" length="3.23" shape="1154.60,917.70 1153.79,917.32 1153.61,916.44 1154.05,915.07"/>
    </edge>
    <edge id=":10028688881_3" function="internal">
        <lane id=":10028688881_3_0" index="0" disallow="tram rail_urban rail rail_electric rail_fast ship container cable_car subway aircraft wheelchair scooter drone" speed="5.92" length="9.10" shape="1147.07,913.07 1148.29,915.39 1149.86,916.50 1151.78,916.40 1154.05,915.07"/>
    </edge>
    <edge id=":10028688881_4" function="internal">
        <lane id=":10028688881_4_0" index="0" disallow="tram rail_urban rail rail_electric rail_fast ship container cable_car subway aircraft wheelchair scooter drone" speed="9.37" length="14.93" shape="1147.07,913.07 1148.12,917.32 1148.03,921.01 1146.81,924.14 1144.46,926.73"/>
    </edge>
    <edge id=":10028688881_5" function="internal">
        <lane id=":10028688881_5_0" index="0" disallow="tram rail_urban rail rail_electric rail_fast ship container cable_car subway aircraft wheelchair scooter drone" speed="3.65" length="4.67" shape="1147.07,913.07 1146.72,914.47 1146.10,915.12 1145.21,915.01 1144.05,914.15"/>
    </edge>
    <edge id=":10028688881_6" function="internal">
        <lane id=":10028688881_6_0" index="0" disallow="tram rail_urban rail rail_electric rail_fast ship container cable_car subway aircraft wheelchair scooter drone" speed="8.09" length="10.92" shape="1142.47,924.22 1144.09,922.39 1144.89,920.11 1144.88,917.36 1144.05,914.15"/>
    </edge>
    <edge id=":10028688881_7" function="internal">
        <lane id=":10028688881_7_0" index="0" disallow="tram rail_urban rail rail_electric rail_fast ship container cable_car subway aircraft wheelchair scooter drone" speed="22.22" length="14.75" shape="1142.47,924.22 1154.05,915.07"/>
    </edge>
    <edge id=":10028688881_8" function="internal">
        <lane id=":10028688881_8_0" index="0" disallow="tram rail_urban rail rail_electric rail_fast ship container cable_car subway aircraft wheelchair scooter drone" speed="3.65" length="1.44" shape="1142.47,924.22 1143.91,924.10"/>
    </edge>
    <edge id=":10028688881_11" function="internal">
        <lane id=":10028688881_11_0" index="0" disallow="tram rail_urban rail rail_electric rail_fast ship container cable_car subway aircraft wheelchair scooter drone" speed="3.65" length="3.23" shape="1143.91,924.10 1144.72,924.48 1144.90,925.36 1144.46,926.73"/>
    </edge>
    <edge id=":10028688885_0" function="internal">
        <lane id=":10028688885_0_0" index="0" disallow="tram rail_urban rail rail_electric rail_fast ship container cable_car subway aircraft wheelchair scooter drone" speed="3.65" length="4.67" shape="1193.71,802.28 1193.95,800.85 1194.52,800.17 1195.42,800.21 1196.63,800.98"/>
    </edge>
    <edge id=":10028695625_0" function="internal">
        <lane id=":10028695625_0_0" index="0" disallow="tram rail_urban rail rail_electric rail_fast ship container cable_car subway aircraft wheelchair scooter drone" speed="6.09" length="9.06" shape="377.19,559.73 375.83,557.56 374.17,556.51 372.20,556.59 369.94,557.80"/>
    </edge>
    <edge id=":10028695625_1" function="internal">
        <lane id=":10028695625_1_0" index="0" disallow="tram rail_urban rail rail_electric rail_fast ship container cable_car subway aircraft wheelchair scooter drone" speed="22.22" length="14.54" shape="377.19,559.73 371.37,546.41"/>
    </edge>
    <edge id=":10028695625_2" function="internal">
        <lane id=":10028695625_2_0" index="0" disallow="tram rail_urban rail rail_electric rail_fast ship container cable_car subway aircraft wheelchair scooter drone" speed="3.65" length="1.44" shape="377.19,559.73 377.44,558.31"/>
    </edge>
    <edge id=":10028695625_9" function="internal">
        <lane id=":10028695625_9_0" index="0" disallow="tram rail_urban rail rail_electric rail_fast ship container cable_car subway aircraft wheelchair scooter drone" speed="3.65" length="3.23" shape="377.44,558.31 378.01,557.62 378.90,557.66 380.12,558.43"/>
    </edge>
    <edge id=":10028695625_3" function="internal">
        <lane id=":10028695625_3_0" index="0" disallow="tram rail_urban rail rail_electric rail_fast ship container cable_car subway aircraft wheelchair scooter drone" speed="22.22" length="14.50" shape="374.30,545.15 380.12,558.43"/>
    </edge>
    <edge id=":10028695625_4" function="internal">
        <lane id=":10028695625_4_0" index="0" disallow="tram rail_urban rail rail_electric rail_fast ship container cable_car subway aircraft wheelchair scooter drone" speed="8.87" length="3.72" shape="374.30,545.15 375.19,548.63 375.17,548.75"/>
    </edge>
    <edge id=":10028695625_5" function="internal">
        <lane id=":10028695625_5_0" index="0" disallow="tram rail_urban rail rail_electric rail_fast ship container cable_car subway aircraft wheelchair scooter drone" speed="3.65" length="1.44" shape="374.30,545.15 374.04,546.57"/>
    </edge>
    <edge id=":10028695625_10" function="internal">
        <lane id=":10028695625_10_0" index="0" disallow="tram rail_urban rail rail_electric rail_fast ship container cable_car subway aircraft wheelchair scooter drone" speed="8.87" length="10.88" shape="375.17,548.75 374.76,551.90 373.01,554.96 369.94,557.80"/>
    </edge>
    <edge id=":10028695625_11" function="internal">
        <lane id=":10028695625_11_0" index="0" disallow="tram rail_urban rail rail_electric rail_fast ship container cable_car subway aircraft wheelchair scooter drone" speed="3.65" length="3.23" shape="374.04,546.57 373.47,547.25 372.57,547.20 371.37,546.41"/>
    </edge>
    <edge id=":10028695625_6" function="internal">
        <lane id=":10028695625_6_0" index="0" disallow="tram rail_urban rail rail_electric rail_fast ship container cable_car subway aircraft wheelchair scooter drone" speed="7.52" length="10.26" shape="368.04,555.23 370.28,553.19 371.58,551.04 371.94,548.78 371.37,546.41"/>
    </edge>
    <edge id=":10028695625_7" function="internal">
        <lane id=":10028695625_7_0" index="0" disallow="tram rail_urban rail rail_electric rail_fast ship container cable_car subway aircraft wheelchair scooter drone" speed="7.67" length="15.08" shape="368.04,555.23 371.81,553.21 375.08,553.08 377.85,554.82 380.12,558.43"/>
    </edge>
    <edge id=":10028695625_8" function="internal">
        <lane id=":10028695625_8_0" index="0" disallow="tram rail_urban rail rail_electric rail_fast ship container cable_car subway aircraft wheelchair scooter drone" speed="3.65" length="4.67" shape="368.04,555.23 369.48,555.16 370.28,555.57 370.43,556.45 369.94,557.80"/>
    </edge>
    <edge id=":10028695627_0" function="internal">
        <lane id=":10028695627_0_0" index="0" disallow="tram rail_urban rail rail_electric rail_fast ship container cable_car subway aircraft wheelchair scooter drone" speed="3.65" length="4.67" shape="317.41,583.74 315.99,583.50 315.30,582.93 315.34,582.04 316.11,580.82"/>
    </edge>
    <edge id=":10028695643_0" function="internal">
        <lane id=":10028695643_0_0" index="0" disallow="tram rail_urban rail rail_electric rail_fast ship container cable_car subway aircraft wheelchair scooter drone" speed="5.78" length="9.67" shape="303.16,315.60 302.43,312.37 302.76,310.24 304.16,309.21 306.63,309.27"/>
    </edge>
    <edge id=":10028695643_1" function="internal">
        <lane id=":10028695643_1_0" index="0" disallow="tram rail_urban rail rail_electric rail_fast ship container cable_car subway aircraft wheelchair scooter drone" speed="3.65" length="1.27" shape="305.99,312.40 305.09,311.50"/>
    </edge>
    <edge id=":10028695643_2" function="internal">
        <lane id=":10028695643_2_0" index="0" disallow="tram rail_urban rail rail_electric rail_fast ship container cable_car subway aircraft wheelchair scooter drone" speed="3.65" length="3.40" shape="305.09,311.50 304.97,311.38 304.74,310.52 305.29,309.81 306.63,309.27"/>
    </edge>
    <edge id=":10028695644_0" function="internal">
        <lane id=":10028695644_0_0" index="0" disallow="tram rail_urban rail rail_electric rail_fast ship container cable_car subway aircraft wheelchair scooter drone" speed="13.89" length="9.59" shape="391.45,322.76 391.35,325.61 391.24,327.55 391.05,329.49 390.69,332.32"/>
    </edge>
    <edge id=":10028695644_1" function="internal">
        <lane id=":10028695644_1_0" index="0" disallow="tram rail_urban rail rail_electric rail_fast ship container cable_car subway aircraft wheelchair scooter drone" speed="5.94" length="8.22" shape="391.45,322.76 391.11,325.61 390.33,327.53 389.10,328.54 387.42,328.64"/>
    </edge>
    <edge id=":10028695644_2" function="internal">
        <lane id=":10028695644_2_0" index="0" disallow="tram rail_urban rail rail_electric rail_fast ship container cable_car subway aircraft wheelchair scooter drone" speed="6.33" length="1.16" shape="388.03,325.49 389.08,325.98"/>
    </edge>
    <edge id=":10028695644_3" function="internal">
        <lane id=":10028695644_3_0" index="0" disallow="tram rail_urban rail rail_electric rail_fast ship container cable_car subway aircraft wheelchair scooter drone" speed="3.65" length="1.04" shape="388.03,325.49 388.77,326.22"/>
    </edge>
    <edge id=":10028695644_4" function="internal">
        <lane id=":10028695644_4_0" index="0" disallow="tram rail_urban rail rail_electric rail_fast ship container cable_car subway aircraft wheelchair scooter drone" speed="6.33" length="6.93" shape="389.08,325.98 389.49,326.17 390.42,327.53 390.82,329.58 390.69,332.32"/>
    </edge>
    <edge id=":10028695644_5" function="internal">
        <lane id=":10028695644_5_0" index="0" disallow="tram rail_urban rail rail_electric rail_fast ship container cable_car subway aircraft wheelchair scooter drone" speed="3.65" length="3.63" shape="388.77,326.22 389.05,326.51 389.29,327.37 388.75,328.08 387.42,328.64"/>
    </edge>
    <edge id=":10028695645_0" function="internal">
        <lane id=":10028695645_0_0" index="0" disallow="tram rail_urban rail rail_electric rail_fast ship container cable_car subway aircraft wheelchair scooter drone" speed="6.20" length="9.05" shape="397.51,315.31 394.97,315.20 393.13,315.96 391.99,317.58 391.54,320.08"/>
    </edge>
    <edge id=":10028695645_1" function="internal">
        <lane id=":10028695645_1_0" index="0" disallow="tram rail_urban rail rail_electric rail_fast ship container cable_car subway aircraft wheelchair scooter drone" speed="13.89" length="11.24" shape="397.51,315.31 386.47,313.22"/>
    </edge>
    <edge id=":10028695645_2" function="internal">
        <lane id=":10028695645_2_0" index="0" disallow="tram rail_urban rail rail_electric rail_fast ship container cable_car subway aircraft wheelchair scooter drone" speed="3.65" length="1.44" shape="397.51,315.31 396.48,314.30"/>
    </edge>
    <edge id=":10028695645_6" function="internal">
        <lane id=":10028695645_6_0" index="0" disallow="tram rail_urban rail rail_electric rail_fast ship container cable_car subway aircraft wheelchair scooter drone" speed="3.65" length="3.23" shape="396.48,314.30 396.23,313.44 396.78,312.73 398.10,312.17"/>
    </edge>
    <edge id=":10028695645_3" function="internal">
        <lane id=":10028695645_3_0" index="0" disallow="tram rail_urban rail rail_electric rail_fast ship container cable_car subway aircraft wheelchair scooter drone" speed="13.89" length="11.24" shape="387.06,310.07 398.10,312.17"/>
    </edge>
    <edge id=":10028695645_4" function="internal">
        <lane id=":10028695645_4_0" index="0" disallow="tram rail_urban rail rail_electric rail_fast ship container cable_car subway aircraft wheelchair scooter drone" speed="7.81" length="2.29" shape="387.06,310.07 389.14,311.04"/>
    </edge>
    <edge id=":10028695645_5" function="internal">
        <lane id=":10028695645_5_0" index="0" disallow="tram rail_urban rail rail_electric rail_fast ship container cable_car subway aircraft wheelchair scooter drone" speed="3.65" length="1.44" shape="387.06,310.07 388.09,311.08"/>
    </edge>
    <edge id=":10028695645_7" function="internal">
        <lane id=":10028695645_7_0" index="0" disallow="tram rail_urban rail rail_electric rail_fast ship container cable_car subway aircraft wheelchair scooter drone" speed="7.81" length="9.61" shape="389.14,311.04 390.58,313.03 391.38,316.04 391.54,320.08"/>
    </edge>
    <edge id=":10028695645_8" function="internal">
        <lane id=":10028695645_8_0" index="0" disallow="tram rail_urban rail rail_electric rail_fast ship container cable_car subway aircraft wheelchair scooter drone" speed="3.65" length="3.23" shape="388.09,311.08 388.34,311.94 387.79,312.66 386.47,313.22"/>
    </edge>
    <edge id=":10028777211_0" function="internal">
        <lane id=":10028777211_0_0" index="0" disallow="tram rail_urban rail rail_electric rail_fast ship container cable_car subway aircraft wheelchair scooter drone" speed="13.89" length="14.61" shape="374.06,1007.44 370.94,993.16"/>
    </edge>
    <edge id=":10028777211_1" function="internal">
        <lane id=":10028777211_1_0" index="0" disallow="tram rail_urban rail rail_electric rail_fast ship container cable_car subway aircraft wheelchair scooter drone" speed="7.57" length="4.45" shape="374.06,1007.44 373.73,1003.00"/>
    </edge>
    <edge id=":10028777211_2" function="internal">
        <lane id=":10028777211_2_0" index="0" disallow="tram rail_urban rail rail_electric rail_fast ship container cable_car subway aircraft wheelchair scooter drone" speed="3.65" length="1.44" shape="374.06,1007.44 374.58,1006.10"/>
    </edge>
    <edge id=":10028777211_9" function="internal">
        <lane id=":10028777211_9_0" index="0" disallow="tram rail_urban rail rail_electric rail_fast ship container cable_car subway aircraft wheelchair scooter drone" speed="7.57" length="11.03" shape="373.73,1003.00 374.99,999.96 377.84,998.31 382.28,998.06"/>
    </edge>
    <edge id=":10028777211_10" function="internal">
        <lane id=":10028777211_10_0" index="0" disallow="tram rail_urban rail rail_electric rail_fast ship container cable_car subway aircraft wheelchair scooter drone" speed="3.65" length="3.23" shape="374.58,1006.10 375.28,1005.53 376.15,1005.75 377.18,1006.76"/>
    </edge>
    <edge id=":10028777211_3" function="internal">
        <lane id=":10028777211_3_0" index="0" disallow="tram rail_urban rail rail_electric rail_fast ship container cable_car subway aircraft wheelchair scooter drone" speed="5.96" length="9.09" shape="382.01,1001.25 379.41,1001.40 377.73,1002.37 376.99,1004.15 377.18,1006.76"/>
    </edge>
    <edge id=":10028777211_4" function="internal">
        <lane id=":10028777211_4_0" index="0" disallow="tram rail_urban rail rail_electric rail_fast ship container cable_car subway aircraft wheelchair scooter drone" speed="9.22" length="14.78" shape="382.01,1001.25 377.76,1000.44 374.50,998.83 372.23,996.40 370.94,993.16"/>
    </edge>
    <edge id=":10028777211_5" function="internal">
        <lane id=":10028777211_5_0" index="0" disallow="tram rail_urban rail rail_electric rail_fast ship container cable_car subway aircraft wheelchair scooter drone" speed="3.65" length="4.67" shape="382.01,1001.25 380.89,1000.35 380.55,999.52 381.02,998.76 382.28,998.06"/>
    </edge>
    <edge id=":10028777211_6" function="internal">
        <lane id=":10028777211_6_0" index="0" disallow="tram rail_urban rail rail_electric rail_fast ship container cable_car subway aircraft wheelchair scooter drone" speed="7.93" length="10.73" shape="374.05,992.42 374.98,994.66 376.66,996.35 379.09,997.48 382.28,998.06"/>
    </edge>
    <edge id=":10028777211_7" function="internal">
        <lane id=":10028777211_7_0" index="0" disallow="tram rail_urban rail rail_electric rail_fast ship container cable_car subway aircraft wheelchair scooter drone" speed="13.89" length="14.67" shape="374.05,992.42 377.18,1006.76"/>
    </edge>
    <edge id=":10028777211_8" function="internal">
        <lane id=":10028777211_8_0" index="0" disallow="tram rail_urban rail rail_electric rail_fast ship container cable_car subway aircraft wheelchair scooter drone" speed="3.65" length="1.44" shape="374.05,992.42 373.55,993.78"/>
    </edge>
    <edge id=":10028777211_11" function="internal">
        <lane id=":10028777211_11_0" index="0" disallow="tram rail_urban rail rail_electric rail_fast ship container cable_car subway aircraft wheelchair scooter drone" speed="3.65" length="3.23" shape="373.55,993.78 372.86,994.35 371.99,994.15 370.94,993.16"/>
    </edge>
    <edge id=":10028777212_0" function="internal">
        <lane id=":10028777212_0_0" index="0" disallow="tram rail_urban rail rail_electric rail_fast ship container cable_car subway aircraft wheelchair scooter drone" speed="3.65" length="4.67" shape="433.66,1002.43 434.78,1003.32 435.11,1004.16 434.65,1004.92 433.38,1005.61"/>
    </edge>
    <edge id=":10028825432_0" function="internal">
        <lane id=":10028825432_0_0" index="0" disallow="tram rail_urban rail rail_electric rail_fast ship container cable_car subway aircraft wheelchair scooter drone" speed="2.78" length="12.92" shape="756.13,849.72 749.70,838.52"/>
    </edge>
    <edge id=":10028825432_1" function="internal">
        <lane id=":10028825432_1_0" index="0" disallow="tram rail_urban rail rail_electric rail_fast ship container cable_car subway aircraft wheelchair scooter drone" speed="2.78" length="16.28" shape="756.13,849.72 755.13,846.67 755.01,843.02 755.77,838.78 757.41,833.95"/>
    </edge>
    <edge id=":10028825432_2" function="internal">
        <lane id=":10028825432_2_0" index="0" disallow="tram rail_urban rail rail_electric rail_fast ship container cable_car subway aircraft wheelchair scooter drone" speed="2.78" length="4.67" shape="756.13,849.72 756.28,848.29 756.81,847.56 757.70,847.54 758.97,848.24"/>
    </edge>
    <edge id=":10028825432_3" function="internal">
        <lane id=":10028825432_3_0" index="0" disallow="tram rail_urban rail rail_electric rail_fast ship container cable_car subway aircraft wheelchair scooter drone" speed="2.78" length="13.51" shape="760.38,835.16 758.93,839.30 758.22,842.87 758.23,845.84 758.97,848.24"/>
    </edge>
    <edge id=":10028825432_4" function="internal">
        <lane id=":10028825432_4_0" index="0" disallow="tram rail_urban rail rail_electric rail_fast ship container cable_car subway aircraft wheelchair scooter drone" speed="2.78" length="15.96" shape="760.38,835.16 757.80,840.05 755.16,842.25 752.46,841.74 749.70,838.52"/>
    </edge>
    <edge id=":10028825432_5" function="internal">
        <lane id=":10028825432_5_0" index="0" disallow="tram rail_urban rail rail_electric rail_fast ship container cable_car subway aircraft wheelchair scooter drone" speed="2.78" length="4.67" shape="760.38,835.16 759.18,835.97 758.29,836.03 757.70,835.36 757.41,833.95"/>
    </edge>
    <edge id=":10028825432_6" function="internal">
        <lane id=":10028825432_6_0" index="0" disallow="tram rail_urban rail rail_electric rail_fast ship container cable_car subway aircraft wheelchair scooter drone" speed="2.78" length="7.77" shape="752.42,836.85 753.59,838.07 754.82,837.99 756.09,836.62 757.41,833.95"/>
    </edge>
    <edge id=":10028825432_7" function="internal">